1

   Abaqus 6.13-1                                  Date 07-nov.-2016   Time 23:30:44
   For use at  under license from Dassault Systemes or its subsidiary.

 Abapy Indentation Simulation                                                    
                                                                                 
 STEP    1     INCREMENT     1     STEP TIME    0.00    


                        S T E P       1     S T A T I C   A N A L Y S I S


                                                                                          

          FIXED TIME INCREMENTS
          TIME INCREMENT IS                                    1.000E-02
          TIME PERIOD IS                                        1.00    

     LINEAR EQUATION SOLVER TYPE         DIRECT SPARSE

 CONVERGENCE TOLERANCE PARAMETERS FOR FORCE    
     CRITERION FOR RESIDUAL FORCE     FOR A NONLINEAR PROBLEM          5.000E-03
     CRITERION FOR DISP.    CORRECTION IN A NONLINEAR PROBLEM          1.000E-02
     INITIAL VALUE OF TIME AVERAGE FORCE                               1.000E-02
     AVERAGE FORCE     IS TIME AVERAGE FORCE    
     ALTERNATE CRIT. FOR RESIDUAL FORCE     FOR A NONLINEAR PROBLEM    2.000E-02
     CRITERION FOR ZERO FORCE     RELATIVE TO TIME AVRG. FORCE         1.000E-05
     CRITERION FOR RESIDUAL FORCE     WHEN THERE IS ZERO FLUX          1.000E-05
     CRITERION FOR DISP.    CORRECTION WHEN THERE IS ZERO FLUX         1.000E-03
     CRITERION FOR RESIDUAL FORCE     FOR A LINEAR INCREMENT           1.000E-08
     FIELD CONVERSION RATIO                                             1.00    
     CRITERION FOR ZERO FORCE     REL. TO TIME AVRG. MAX. FORCE        1.000E-05
     CRITERION FOR ZERO DISP.    RELATIVE TO CHARACTERISTIC LENGTH     1.000E-08

 CONVERGENCE TOLERANCE PARAMETERS FOR MOMENT   
     CRITERION FOR RESIDUAL MOMENT    FOR A NONLINEAR PROBLEM          5.000E-03
     CRITERION FOR ROTATION CORRECTION IN A NONLINEAR PROBLEM          1.000E-02
     INITIAL VALUE OF TIME AVERAGE MOMENT                              1.000E-02
     AVERAGE MOMENT    IS TIME AVERAGE MOMENT   
     ALTERNATE CRIT. FOR RESIDUAL MOMENT    FOR A NONLINEAR PROBLEM    2.000E-02
     CRITERION FOR ZERO MOMENT    RELATIVE TO TIME AVRG. MOMENT        1.000E-05
     CRITERION FOR RESIDUAL MOMENT    WHEN THERE IS ZERO FLUX          1.000E-05
     CRITERION FOR ROTATION CORRECTION WHEN THERE IS ZERO FLUX         1.000E-03
     CRITERION FOR RESIDUAL MOMENT    FOR A LINEAR INCREMENT           1.000E-08
     FIELD CONVERSION RATIO                                             1.00    
     CRITERION FOR ZERO MOMENT    REL. TO TIME AVRG. MAX. MOMENT       1.000E-05

     VOLUMETRIC STRAIN COMPATIBILITY TOLERANCE FOR HYBRID SOLIDS       1.000E-05
     AXIAL STRAIN COMPATIBILITY TOLERANCE FOR HYBRID BEAMS             1.000E-05
     TRANS. SHEAR STRAIN COMPATIBILITY TOLERANCE FOR HYBRID BEAMS      1.000E-05
     SOFT CONTACT CONSTRAINT COMPATIBILITY TOLERANCE FOR P>P0          5.000E-03
     SOFT CONTACT CONSTRAINT COMPATIBILITY TOLERANCE FOR P=0.0         0.100    
     CONTACT FORCE ERROR TOLERANCE FOR CONVERT SDI=YES                 1.00    
     DISPLACEMENT COMPATIBILITY TOLERANCE FOR DCOUP ELEMENTS           1.000E-05
     ROTATION COMPATIBILITY TOLERANCE FOR DCOUP ELEMENTS               1.000E-05

 EQUILIBRIUM WILL BE CHECKED FOR SEVERE DISCONTINUITY ITERATIONS

 ITERATION CONTROL PARAMETERS:
     FIRST EQUILIBRIUM ITERATION FOR CONSECUTIVE DIVERGENCE CHECK              4
     EQUILIBRIUM ITERATION AFTER WHICH ALTERNATE RESIDUAL IS USED              9
     MAXIMUM EQUILIBRIUM ITERATIONS ALLOWED                                   16
     MAXIMUM ITERATIONS FOR SEVERE DISCONTINUITIES                            12
     GLOBAL STABILIZATION CONTROL IS NOT USED

          PRINT OF INCREMENT NUMBER, TIME, ETC., EVERY    1  INCREMENTS

     THE MAXIMUM NUMBER OF INCREMENTS IN THIS STEP IS                 1000000

          LARGE DISPLACEMENT THEORY WILL BE USED

     LINEAR EXTRAPOLATION WILL BE USED

     CHARACTERISTIC ELEMENT LENGTH     0.196    

     DETAILS REGARDING ACTUAL SOLUTION WAVEFRONT REQUESTED

     DETAILED OUTPUT OF DIAGNOSTICS TO DATABASE REQUESTED

     PRINT OF INCREMENT NUMBER, TIME, ETC., TO THE MESSAGE FILE EVERY     1  INCREMENTS

     EQUATIONS ARE BEING REORDERED TO MINIMIZE WAVEFRONT

     COLLECTING MODEL CONSTRAINT INFORMATION FOR OVERCONSTRAINT CHECKS

     COLLECTING STEP CONSTRAINT INFORMATION FOR OVERCONSTRAINT CHECKS


  INCREMENT     1 STARTS. ATTEMPT NUMBER  1, TIME INCREMENT  1.000E-02

  NUMBER OF EQUATIONS =     1873     NUMBER OF FLOATING PT. OPERATIONS =  2.46E+06

     CHECK POINT   START OF SOLVER    

     CHECK POINT  END OF SOLVER       

       ELAPSED USER TIME (SEC)      =  2.00000E-02
       ELAPSED SYSTEM TIME (SEC)    =   0.0000    
       ELAPSED TOTAL CPU TIME (SEC) =  2.00000E-02
       ELAPSED WALLCLOCK TIME (SEC) =          0

               CONVERGENCE CHECKS FOR EQUILIBRIUM ITERATION     1


 AVERAGE FORCE                       29.0       TIME AVG. FORCE        29.0    
 LARGEST RESIDUAL FORCE             9.183E-02   AT NODE          3   DOF  1
   INSTANCE: I_SAMPLE                                                                        
 LARGEST INCREMENT OF DISP.         1.000E-02   AT NODE          5   DOF  2
   INSTANCE: I_SAMPLE                                                                        
 LARGEST CORRECTION TO DISP.        1.000E-02   AT NODE          5   DOF  2
   INSTANCE: I_SAMPLE                                                                        
          DISP.    CORRECTION TOO LARGE COMPARED TO DISP.    INCREMENT

 AVERAGE MOMENT                      0.00       TIME AVG. MOMENT       5.69    
                                                (FROM FORCE     FIELD)
 ALL MOMENT    RESIDUALS ARE ZERO
 LARGEST INCREMENT OF ROTATION     -2.747E-33   AT NODE          6   DOF  6
   INSTANCE: I_SAMPLE                                                                        
 LARGEST CORRECTION TO ROTATION    -2.747E-33   AT NODE          6   DOF  6
   INSTANCE: I_SAMPLE                                                                        
          THERE IS ZERO MOMENT    EVERYWHERE

  NUMBER OF EQUATIONS =     1873     NUMBER OF FLOATING PT. OPERATIONS =  2.46E+06

     CHECK POINT   START OF SOLVER    

     CHECK POINT  END OF SOLVER       

       ELAPSED USER TIME (SEC)      =  1.00000E-02
       ELAPSED SYSTEM TIME (SEC)    =   0.0000    
       ELAPSED TOTAL CPU TIME (SEC) =  1.00000E-02
       ELAPSED WALLCLOCK TIME (SEC) =          0

               CONVERGENCE CHECKS FOR EQUILIBRIUM ITERATION     2


 AVERAGE FORCE                       29.0       TIME AVG. FORCE        29.0    
 LARGEST RESIDUAL FORCE             5.319E-05   AT NODE         67   DOF  2
   INSTANCE: I_SAMPLE                                                                        
 LARGEST INCREMENT OF DISP.         1.000E-02   AT NODE          5   DOF  2
   INSTANCE: I_SAMPLE                                                                        
 LARGEST CORRECTION TO DISP.        8.154E-07   AT NODE        139   DOF  2
   INSTANCE: I_SAMPLE                                                                        
          THE FORCE     EQUILIBRIUM EQUATIONS HAVE CONVERGED

 AVERAGE MOMENT                      0.00       TIME AVG. MOMENT       5.68    
                                                (FROM FORCE     FIELD)
 ALL MOMENT    RESIDUALS ARE ZERO
 LARGEST INCREMENT OF ROTATION     -4.847E-33   AT NODE          6   DOF  6
   INSTANCE: I_SAMPLE                                                                        
 LARGEST CORRECTION TO ROTATION    -2.100E-33   AT NODE          6   DOF  6
   INSTANCE: I_SAMPLE                                                                        
          THERE IS ZERO MOMENT    EVERYWHERE

 ITERATION SUMMARY FOR THE INCREMENT:   2 TOTAL ITERATIONS, OF WHICH
   0 ARE SEVERE DISCONTINUITY ITERATIONS AND  2 ARE EQUILIBRIUM ITERATIONS.

 TIME INCREMENT COMPLETED  1.000E-02,  FRACTION OF STEP COMPLETED  1.000E-02
 STEP TIME COMPLETED       1.000E-02,  TOTAL TIME COMPLETED        1.000E-02


  INCREMENT     2 STARTS. ATTEMPT NUMBER  1, TIME INCREMENT  1.000E-02

  NUMBER OF EQUATIONS =     1873     NUMBER OF FLOATING PT. OPERATIONS =  2.46E+06

     CHECK POINT   START OF SOLVER    

     CHECK POINT  END OF SOLVER       

       ELAPSED USER TIME (SEC)      =  1.00000E-02
       ELAPSED SYSTEM TIME (SEC)    =   0.0000    
       ELAPSED TOTAL CPU TIME (SEC) =  1.00000E-02
       ELAPSED WALLCLOCK TIME (SEC) =          0

               CONVERGENCE CHECKS FOR EQUILIBRIUM ITERATION     1


 AVERAGE FORCE                       39.2       TIME AVG. FORCE        34.1    
 LARGEST RESIDUAL FORCE             -185.       AT NODE         67   DOF  1
   INSTANCE: I_SAMPLE                                                                        
 LARGEST INCREMENT OF DISP.         1.010E-02   AT NODE        144   DOF  2
   INSTANCE: I_SAMPLE                                                                        
 LARGEST CORRECTION TO DISP.        2.431E-03   AT NODE        146   DOF  2
   INSTANCE: I_SAMPLE                                                                        
          FORCE     EQUILIBRIUM NOT ACHIEVED WITHIN TOLERANCE.

 AVERAGE MOMENT                      0.00       TIME AVG. MOMENT       5.68    
                                                (FROM FORCE     FIELD)
 ALL MOMENT    RESIDUALS ARE ZERO
 LARGEST INCREMENT OF ROTATION     -2.371E-33   AT NODE          6   DOF  6
   INSTANCE: I_SAMPLE                                                                        
 LARGEST CORRECTION TO ROTATION     2.476E-33   AT NODE          6   DOF  6
   INSTANCE: I_SAMPLE                                                                        
          THERE IS ZERO MOMENT    EVERYWHERE

  NUMBER OF EQUATIONS =     1873     NUMBER OF FLOATING PT. OPERATIONS =  2.46E+06

     CHECK POINT   START OF SOLVER    

     CHECK POINT  END OF SOLVER       

       ELAPSED USER TIME (SEC)      =  1.00000E-02
       ELAPSED SYSTEM TIME (SEC)    =   0.0000    
       ELAPSED TOTAL CPU TIME (SEC) =  1.00000E-02
       ELAPSED WALLCLOCK TIME (SEC) =          0

               CONVERGENCE CHECKS FOR EQUILIBRIUM ITERATION     2


 AVERAGE FORCE                       42.6       TIME AVG. FORCE        35.8    
 LARGEST RESIDUAL FORCE             -7.40       AT NODE        427   DOF  1
   INSTANCE: I_SAMPLE                                                                        
 LARGEST INCREMENT OF DISP.         1.000E-02   AT NODE          5   DOF  2
   INSTANCE: I_SAMPLE                                                                        
 LARGEST CORRECTION TO DISP.       -8.913E-04   AT NODE        145   DOF  2
   INSTANCE: I_SAMPLE                                                                        
          FORCE     EQUILIBRIUM NOT ACHIEVED WITHIN TOLERANCE.

 AVERAGE MOMENT                      0.00       TIME AVG. MOMENT       5.68    
                                                (FROM FORCE     FIELD)
 ALL MOMENT    RESIDUALS ARE ZERO
 LARGEST INCREMENT OF ROTATION     -5.192E-33   AT NODE          6   DOF  6
   INSTANCE: I_SAMPLE                                                                        
 LARGEST CORRECTION TO ROTATION    -2.821E-33   AT NODE          6   DOF  6
   INSTANCE: I_SAMPLE                                                                        
          THERE IS ZERO MOMENT    EVERYWHERE

  NUMBER OF EQUATIONS =     1873     NUMBER OF FLOATING PT. OPERATIONS =  2.46E+06

     CHECK POINT   START OF SOLVER    

     CHECK POINT  END OF SOLVER       

       ELAPSED USER TIME (SEC)      =  1.00000E-02
       ELAPSED SYSTEM TIME (SEC)    =   0.0000    
       ELAPSED TOTAL CPU TIME (SEC) =  1.00000E-02
       ELAPSED WALLCLOCK TIME (SEC) =          0

               CONVERGENCE CHECKS FOR EQUILIBRIUM ITERATION     3


 AVERAGE FORCE                       42.7       TIME AVG. FORCE        35.8    
 LARGEST RESIDUAL FORCE              2.41       AT NODE        602   DOF  2
   INSTANCE: I_SAMPLE                                                                        
 LARGEST INCREMENT OF DISP.         1.000E-02   AT NODE          5   DOF  2
   INSTANCE: I_SAMPLE                                                                        
 LARGEST CORRECTION TO DISP.       -7.762E-05   AT NODE        402   DOF  2
   INSTANCE: I_SAMPLE                                                                        
          FORCE     EQUILIBRIUM NOT ACHIEVED WITHIN TOLERANCE.

 AVERAGE MOMENT                      0.00       TIME AVG. MOMENT       5.68    
                                                (FROM FORCE     FIELD)
 ALL MOMENT    RESIDUALS ARE ZERO
 LARGEST INCREMENT OF ROTATION     -8.013E-33   AT NODE          6   DOF  6
   INSTANCE: I_SAMPLE                                                                        
 LARGEST CORRECTION TO ROTATION    -2.822E-33   AT NODE          6   DOF  6
   INSTANCE: I_SAMPLE                                                                        
          THERE IS ZERO MOMENT    EVERYWHERE

  NUMBER OF EQUATIONS =     1873     NUMBER OF FLOATING PT. OPERATIONS =  2.46E+06

     CHECK POINT   START OF SOLVER    

     CHECK POINT  END OF SOLVER       

       ELAPSED USER TIME (SEC)      =  1.00000E-02
       ELAPSED SYSTEM TIME (SEC)    =   0.0000    
       ELAPSED TOTAL CPU TIME (SEC) =  1.00000E-02
       ELAPSED WALLCLOCK TIME (SEC) =          0

               CONVERGENCE CHECKS FOR EQUILIBRIUM ITERATION     4


 AVERAGE FORCE                       42.7       TIME AVG. FORCE        35.8    
 LARGEST RESIDUAL FORCE            -2.116E-02   AT NODE        480   DOF  1
   INSTANCE: I_SAMPLE                                                                        
 LARGEST INCREMENT OF DISP.         1.000E-02   AT NODE          5   DOF  2
   INSTANCE: I_SAMPLE                                                                        
 LARGEST CORRECTION TO DISP.       -7.730E-06   AT NODE        149   DOF  2
   INSTANCE: I_SAMPLE                                                                        
          THE FORCE     EQUILIBRIUM EQUATIONS HAVE CONVERGED

 AVERAGE MOMENT                      0.00       TIME AVG. MOMENT       5.68    
                                                (FROM FORCE     FIELD)
 ALL MOMENT    RESIDUALS ARE ZERO
 LARGEST INCREMENT OF ROTATION     -1.084E-32   AT NODE          6   DOF  6
   INSTANCE: I_SAMPLE                                                                        
 LARGEST CORRECTION TO ROTATION    -2.822E-33   AT NODE          6   DOF  6
   INSTANCE: I_SAMPLE                                                                        
          THERE IS ZERO MOMENT    EVERYWHERE

 ITERATION SUMMARY FOR THE INCREMENT:   4 TOTAL ITERATIONS, OF WHICH
   0 ARE SEVERE DISCONTINUITY ITERATIONS AND  4 ARE EQUILIBRIUM ITERATIONS.

 TIME INCREMENT COMPLETED  1.000E-02,  FRACTION OF STEP COMPLETED  2.000E-02
 STEP TIME COMPLETED       2.000E-02,  TOTAL TIME COMPLETED        2.000E-02


  INCREMENT     3 STARTS. ATTEMPT NUMBER  1, TIME INCREMENT  1.000E-02

  NUMBER OF EQUATIONS =     1873     NUMBER OF FLOATING PT. OPERATIONS =  2.46E+06

     CHECK POINT   START OF SOLVER    

     CHECK POINT  END OF SOLVER       

       ELAPSED USER TIME (SEC)      =  1.00000E-02
       ELAPSED SYSTEM TIME (SEC)    =   0.0000    
       ELAPSED TOTAL CPU TIME (SEC) =  1.00000E-02
       ELAPSED WALLCLOCK TIME (SEC) =          0
 

 ***WARNING: THE SYSTEM MATRIX HAS 1 NEGATIVE EIGENVALUES.

     NEGATIVE EIGENVALUES MEAN THAT THE SYSTEM MATRIX IS NOT 
     POSITIVE DEFINITE:
     FOR EXAMPLE, A BIFURCATION (BUCKLING) LOAD MAY HAVE BEEN EXCEEDED.

               CONVERGENCE CHECKS FOR EQUILIBRIUM ITERATION     1


 AVERAGE FORCE                       37.5       TIME AVG. FORCE        36.4    
 LARGEST RESIDUAL FORCE             -129.       AT NODE         14   DOF  1
   INSTANCE: I_SAMPLE                                                                        
 LARGEST INCREMENT OF DISP.         1.176E-02   AT NODE        154   DOF  2
   INSTANCE: I_SAMPLE                                                                        
 LARGEST CORRECTION TO DISP.        4.622E-03   AT NODE        157   DOF  2
   INSTANCE: I_SAMPLE                                                                        
          FORCE     EQUILIBRIUM NOT ACHIEVED WITHIN TOLERANCE.

 AVERAGE MOMENT                      0.00       TIME AVG. MOMENT       7.03    
                                                (FROM FORCE     FIELD)
 ALL MOMENT    RESIDUALS ARE ZERO
 LARGEST INCREMENT OF ROTATION     -2.521E-33   AT NODE          6   DOF  6
   INSTANCE: I_SAMPLE                                                                        
 LARGEST CORRECTION TO ROTATION     8.314E-33   AT NODE          6   DOF  6
   INSTANCE: I_SAMPLE                                                                        
          THERE IS ZERO MOMENT    EVERYWHERE

  NUMBER OF EQUATIONS =     1873     NUMBER OF FLOATING PT. OPERATIONS =  2.46E+06

     CHECK POINT   START OF SOLVER    

     CHECK POINT  END OF SOLVER       

       ELAPSED USER TIME (SEC)      =  1.00000E-02
       ELAPSED SYSTEM TIME (SEC)    =   0.0000    
       ELAPSED TOTAL CPU TIME (SEC) =  1.00000E-02
       ELAPSED WALLCLOCK TIME (SEC) =          0

               CONVERGENCE CHECKS FOR EQUILIBRIUM ITERATION     2


 AVERAGE FORCE                       40.0       TIME AVG. FORCE        37.2    
 LARGEST RESIDUAL FORCE              17.4       AT NODE        288   DOF  2
   INSTANCE: I_SAMPLE                                                                        
 LARGEST INCREMENT OF DISP.         1.000E-02   AT NODE          5   DOF  2
   INSTANCE: I_SAMPLE                                                                        
 LARGEST CORRECTION TO DISP.       -1.807E-03   AT NODE        154   DOF  2
   INSTANCE: I_SAMPLE                                                                        
          FORCE     EQUILIBRIUM NOT ACHIEVED WITHIN TOLERANCE.

 AVERAGE MOMENT                      0.00       TIME AVG. MOMENT       7.03    
                                                (FROM FORCE     FIELD)
 ALL MOMENT    RESIDUALS ARE ZERO
 LARGEST INCREMENT OF ROTATION     -5.408E-33   AT NODE          6   DOF  6
   INSTANCE: I_SAMPLE                                                                        
 LARGEST CORRECTION TO ROTATION    -2.886E-33   AT NODE          6   DOF  6
   INSTANCE: I_SAMPLE                                                                        
          THERE IS ZERO MOMENT    EVERYWHERE

  NUMBER OF EQUATIONS =     1873     NUMBER OF FLOATING PT. OPERATIONS =  2.46E+06

     CHECK POINT   START OF SOLVER    

     CHECK POINT  END OF SOLVER       

       ELAPSED USER TIME (SEC)      =  1.00000E-02
       ELAPSED SYSTEM TIME (SEC)    =   0.0000    
       ELAPSED TOTAL CPU TIME (SEC) =  1.00000E-02
       ELAPSED WALLCLOCK TIME (SEC) =          0

               CONVERGENCE CHECKS FOR EQUILIBRIUM ITERATION     3


 AVERAGE FORCE                       40.0       TIME AVG. FORCE        37.2    
 LARGEST RESIDUAL FORCE              4.97       AT NODE        652   DOF  2
   INSTANCE: I_SAMPLE                                                                        
 LARGEST INCREMENT OF DISP.         1.000E-02   AT NODE          5   DOF  2
   INSTANCE: I_SAMPLE                                                                        
 LARGEST CORRECTION TO DISP.       -6.892E-04   AT NODE        162   DOF  2
   INSTANCE: I_SAMPLE                                                                        
          FORCE     EQUILIBRIUM NOT ACHIEVED WITHIN TOLERANCE.

 AVERAGE MOMENT                      0.00       TIME AVG. MOMENT       7.03    
                                                (FROM FORCE     FIELD)
 ALL MOMENT    RESIDUALS ARE ZERO
 LARGEST INCREMENT OF ROTATION     -8.292E-33   AT NODE          6   DOF  6
   INSTANCE: I_SAMPLE                                                                        
 LARGEST CORRECTION TO ROTATION    -2.884E-33   AT NODE          6   DOF  6
   INSTANCE: I_SAMPLE                                                                        
          THERE IS ZERO MOMENT    EVERYWHERE

  NUMBER OF EQUATIONS =     1873     NUMBER OF FLOATING PT. OPERATIONS =  2.46E+06

     CHECK POINT   START OF SOLVER    

     CHECK POINT  END OF SOLVER       

       ELAPSED USER TIME (SEC)      =  1.00000E-02
       ELAPSED SYSTEM TIME (SEC)    =   0.0000    
       ELAPSED TOTAL CPU TIME (SEC) =  1.00000E-02
       ELAPSED WALLCLOCK TIME (SEC) =          0

               CONVERGENCE CHECKS FOR EQUILIBRIUM ITERATION     4


 AVERAGE FORCE                       39.9       TIME AVG. FORCE        37.2    
 LARGEST RESIDUAL FORCE             -3.83       AT NODE        330   DOF  2
   INSTANCE: I_SAMPLE                                                                        
 LARGEST INCREMENT OF DISP.         1.000E-02   AT NODE          5   DOF  2
   INSTANCE: I_SAMPLE                                                                        
 LARGEST CORRECTION TO DISP.       -7.289E-04   AT NODE        162   DOF  2
   INSTANCE: I_SAMPLE                                                                        
          FORCE     EQUILIBRIUM NOT ACHIEVED WITHIN TOLERANCE.

 AVERAGE MOMENT                      0.00       TIME AVG. MOMENT       7.03    
                                                (FROM FORCE     FIELD)
 ALL MOMENT    RESIDUALS ARE ZERO
 LARGEST INCREMENT OF ROTATION     -1.118E-32   AT NODE          6   DOF  6
   INSTANCE: I_SAMPLE                                                                        
 LARGEST CORRECTION TO ROTATION    -2.883E-33   AT NODE          6   DOF  6
   INSTANCE: I_SAMPLE                                                                        
          THERE IS ZERO MOMENT    EVERYWHERE

  NUMBER OF EQUATIONS =     1873     NUMBER OF FLOATING PT. OPERATIONS =  2.46E+06

     CHECK POINT   START OF SOLVER    

     CHECK POINT  END OF SOLVER       

       ELAPSED USER TIME (SEC)      =  1.00000E-02
       ELAPSED SYSTEM TIME (SEC)    =  1.00000E-02
       ELAPSED TOTAL CPU TIME (SEC) =  2.00000E-02
       ELAPSED WALLCLOCK TIME (SEC) =          0

               CONVERGENCE CHECKS FOR EQUILIBRIUM ITERATION     5


 AVERAGE FORCE                       39.9       TIME AVG. FORCE        37.2    
 LARGEST RESIDUAL FORCE              1.01       AT NODE        215   DOF  1
   INSTANCE: I_SAMPLE                                                                        
 LARGEST INCREMENT OF DISP.         1.000E-02   AT NODE          5   DOF  2
   INSTANCE: I_SAMPLE                                                                        
 LARGEST CORRECTION TO DISP.       -8.738E-04   AT NODE        164   DOF  2
   INSTANCE: I_SAMPLE                                                                        
          FORCE     EQUILIBRIUM NOT ACHIEVED WITHIN TOLERANCE.

 AVERAGE MOMENT                      0.00       TIME AVG. MOMENT       7.03    
                                                (FROM FORCE     FIELD)
 ALL MOMENT    RESIDUALS ARE ZERO
 LARGEST INCREMENT OF ROTATION     -1.406E-32   AT NODE          6   DOF  6
   INSTANCE: I_SAMPLE                                                                        
 LARGEST CORRECTION TO ROTATION    -2.883E-33   AT NODE          6   DOF  6
   INSTANCE: I_SAMPLE                                                                        
          THERE IS ZERO MOMENT    EVERYWHERE

  NUMBER OF EQUATIONS =     1873     NUMBER OF FLOATING PT. OPERATIONS =  2.46E+06

     CHECK POINT   START OF SOLVER    

     CHECK POINT  END OF SOLVER       

       ELAPSED USER TIME (SEC)      =  1.00000E-02
       ELAPSED SYSTEM TIME (SEC)    =   0.0000    
       ELAPSED TOTAL CPU TIME (SEC) =  1.00000E-02
       ELAPSED WALLCLOCK TIME (SEC) =          0

               CONVERGENCE CHECKS FOR EQUILIBRIUM ITERATION     6


 AVERAGE FORCE                       39.9       TIME AVG. FORCE        37.2    
 LARGEST RESIDUAL FORCE             9.109E-02   AT NODE        652   DOF  2
   INSTANCE: I_SAMPLE                                                                        
 LARGEST INCREMENT OF DISP.         1.000E-02   AT NODE          5   DOF  2
   INSTANCE: I_SAMPLE                                                                        
 LARGEST CORRECTION TO DISP.       -3.543E-04   AT NODE        165   DOF  2
   INSTANCE: I_SAMPLE                                                                        
 ESTIMATE OF DISP.    CORRECTION   -3.207E-05
 FORCE     EQUILIB. ACCEPTED BASED ON SMALL RESIDUAL AND ESTIMATED CORRECTION

 AVERAGE MOMENT                      0.00       TIME AVG. MOMENT       7.03    
                                                (FROM FORCE     FIELD)
 ALL MOMENT    RESIDUALS ARE ZERO
 LARGEST INCREMENT OF ROTATION     -1.694E-32   AT NODE          6   DOF  6
   INSTANCE: I_SAMPLE                                                                        
 LARGEST CORRECTION TO ROTATION    -2.883E-33   AT NODE          6   DOF  6
   INSTANCE: I_SAMPLE                                                                        
          THERE IS ZERO MOMENT    EVERYWHERE

 ITERATION SUMMARY FOR THE INCREMENT:   6 TOTAL ITERATIONS, OF WHICH
   0 ARE SEVERE DISCONTINUITY ITERATIONS AND  6 ARE EQUILIBRIUM ITERATIONS.

 TIME INCREMENT COMPLETED  1.000E-02,  FRACTION OF STEP COMPLETED  3.000E-02
 STEP TIME COMPLETED       3.000E-02,  TOTAL TIME COMPLETED        3.000E-02


  INCREMENT     4 STARTS. ATTEMPT NUMBER  1, TIME INCREMENT  1.000E-02

  NUMBER OF EQUATIONS =     1873     NUMBER OF FLOATING PT. OPERATIONS =  2.46E+06

     CHECK POINT   START OF SOLVER    

     CHECK POINT  END OF SOLVER       

       ELAPSED USER TIME (SEC)      =   0.0000    
       ELAPSED SYSTEM TIME (SEC)    =   0.0000    
       ELAPSED TOTAL CPU TIME (SEC) =   0.0000    
       ELAPSED WALLCLOCK TIME (SEC) =          0
 

 ***WARNING: THE SYSTEM MATRIX HAS 1 NEGATIVE EIGENVALUES.
             EXPLANATIONS ARE SUGGESTED AFTER THE FIRST OCCURRENCE OF THIS MESSAGE.

               CONVERGENCE CHECKS FOR EQUILIBRIUM ITERATION     1


 AVERAGE FORCE                       39.2       TIME AVG. FORCE        37.7    
 LARGEST RESIDUAL FORCE             -51.9       AT NODE         60   DOF  1
   INSTANCE: I_SAMPLE                                                                        
 LARGEST INCREMENT OF DISP.         1.105E-02   AT NODE        158   DOF  2
   INSTANCE: I_SAMPLE                                                                        
 LARGEST CORRECTION TO DISP.        5.101E-03   AT NODE        166   DOF  2
   INSTANCE: I_SAMPLE                                                                        
          FORCE     EQUILIBRIUM NOT ACHIEVED WITHIN TOLERANCE.

 AVERAGE MOMENT                      0.00       TIME AVG. MOMENT       7.30    
                                                (FROM FORCE     FIELD)
 ALL MOMENT    RESIDUALS ARE ZERO
 LARGEST INCREMENT OF ROTATION     -2.524E-33   AT NODE          6   DOF  6
   INSTANCE: I_SAMPLE                                                                        
 LARGEST CORRECTION TO ROTATION     1.442E-32   AT NODE          6   DOF  6
   INSTANCE: I_SAMPLE                                                                        
          THERE IS ZERO MOMENT    EVERYWHERE

  NUMBER OF EQUATIONS =     1873     NUMBER OF FLOATING PT. OPERATIONS =  2.46E+06

     CHECK POINT   START OF SOLVER    

     CHECK POINT  END OF SOLVER       

       ELAPSED USER TIME (SEC)      =  1.00000E-02
       ELAPSED SYSTEM TIME (SEC)    =   0.0000    
       ELAPSED TOTAL CPU TIME (SEC) =  1.00000E-02
       ELAPSED WALLCLOCK TIME (SEC) =          0

               CONVERGENCE CHECKS FOR EQUILIBRIUM ITERATION     2


 AVERAGE FORCE                       38.4       TIME AVG. FORCE        37.5    
 LARGEST RESIDUAL FORCE             -87.8       AT NODE         42   DOF  1
   INSTANCE: I_SAMPLE                                                                        
 LARGEST INCREMENT OF DISP.         1.224E-02   AT NODE        173   DOF  2
   INSTANCE: I_SAMPLE                                                                        
 LARGEST CORRECTION TO DISP.        7.601E-03   AT NODE        178   DOF  2
   INSTANCE: I_SAMPLE                                                                        
          FORCE     EQUILIBRIUM NOT ACHIEVED WITHIN TOLERANCE.

 AVERAGE MOMENT                      0.00       TIME AVG. MOMENT       7.30    
                                                (FROM FORCE     FIELD)
 ALL MOMENT    RESIDUALS ARE ZERO
 LARGEST INCREMENT OF ROTATION     -5.403E-33   AT NODE          6   DOF  6
   INSTANCE: I_SAMPLE                                                                        
 LARGEST CORRECTION TO ROTATION    -2.879E-33   AT NODE          6   DOF  6
   INSTANCE: I_SAMPLE                                                                        
          THERE IS ZERO MOMENT    EVERYWHERE

  NUMBER OF EQUATIONS =     1873     NUMBER OF FLOATING PT. OPERATIONS =  2.46E+06

     CHECK POINT   START OF SOLVER    

     CHECK POINT  END OF SOLVER       

       ELAPSED USER TIME (SEC)      =  1.00000E-02
       ELAPSED SYSTEM TIME (SEC)    =   0.0000    
       ELAPSED TOTAL CPU TIME (SEC) =  1.00000E-02
       ELAPSED WALLCLOCK TIME (SEC) =          0

               CONVERGENCE CHECKS FOR EQUILIBRIUM ITERATION     3


 AVERAGE FORCE                       39.9       TIME AVG. FORCE        37.9    
 LARGEST RESIDUAL FORCE             -8.23       AT NODE        281   DOF  2
   INSTANCE: I_SAMPLE                                                                        
 LARGEST INCREMENT OF DISP.         1.007E-02   AT NODE        173   DOF  2
   INSTANCE: I_SAMPLE                                                                        
 LARGEST CORRECTION TO DISP.       -2.173E-03   AT NODE        173   DOF  2
   INSTANCE: I_SAMPLE                                                                        
          FORCE     EQUILIBRIUM NOT ACHIEVED WITHIN TOLERANCE.

 AVERAGE MOMENT                      0.00       TIME AVG. MOMENT       7.30    
                                                (FROM FORCE     FIELD)
 ALL MOMENT    RESIDUALS ARE ZERO
 LARGEST INCREMENT OF ROTATION     -8.281E-33   AT NODE          6   DOF  6
   INSTANCE: I_SAMPLE                                                                        
 LARGEST CORRECTION TO ROTATION    -2.878E-33   AT NODE          6   DOF  6
   INSTANCE: I_SAMPLE                                                                        
          THERE IS ZERO MOMENT    EVERYWHERE

  NUMBER OF EQUATIONS =     1873     NUMBER OF FLOATING PT. OPERATIONS =  2.46E+06

     CHECK POINT   START OF SOLVER    

     CHECK POINT  END OF SOLVER       

       ELAPSED USER TIME (SEC)      =  1.00000E-02
       ELAPSED SYSTEM TIME (SEC)    =   0.0000    
       ELAPSED TOTAL CPU TIME (SEC) =  1.00000E-02
       ELAPSED WALLCLOCK TIME (SEC) =          0

               CONVERGENCE CHECKS FOR EQUILIBRIUM ITERATION     4


 AVERAGE FORCE                       39.9       TIME AVG. FORCE        37.9    
 LARGEST RESIDUAL FORCE             -4.19       AT NODE        792   DOF  2
   INSTANCE: I_SAMPLE                                                                        
 LARGEST INCREMENT OF DISP.         1.005E-02   AT NODE        173   DOF  2
   INSTANCE: I_SAMPLE                                                                        
 LARGEST CORRECTION TO DISP.       -6.405E-04   AT NODE        184   DOF  2
   INSTANCE: I_SAMPLE                                                                        
          FORCE     EQUILIBRIUM NOT ACHIEVED WITHIN TOLERANCE.

 AVERAGE MOMENT                      0.00       TIME AVG. MOMENT       7.30    
                                                (FROM FORCE     FIELD)
 ALL MOMENT    RESIDUALS ARE ZERO
 LARGEST INCREMENT OF ROTATION     -1.116E-32   AT NODE          6   DOF  6
   INSTANCE: I_SAMPLE                                                                        
 LARGEST CORRECTION TO ROTATION    -2.878E-33   AT NODE          6   DOF  6
   INSTANCE: I_SAMPLE                                                                        
          THERE IS ZERO MOMENT    EVERYWHERE

  NUMBER OF EQUATIONS =     1873     NUMBER OF FLOATING PT. OPERATIONS =  2.46E+06

     CHECK POINT   START OF SOLVER    

     CHECK POINT  END OF SOLVER       

       ELAPSED USER TIME (SEC)      =  1.00000E-02
       ELAPSED SYSTEM TIME (SEC)    =   0.0000    
       ELAPSED TOTAL CPU TIME (SEC) =  1.00000E-02
       ELAPSED WALLCLOCK TIME (SEC) =          0

               CONVERGENCE CHECKS FOR EQUILIBRIUM ITERATION     5


 AVERAGE FORCE                       39.9       TIME AVG. FORCE        37.9    
 LARGEST RESIDUAL FORCE             -2.49       AT NODE        461   DOF  2
   INSTANCE: I_SAMPLE                                                                        
 LARGEST INCREMENT OF DISP.         1.005E-02   AT NODE        171   DOF  2
   INSTANCE: I_SAMPLE                                                                        
 LARGEST CORRECTION TO DISP.       -4.343E-04   AT NODE        184   DOF  2
   INSTANCE: I_SAMPLE                                                                        
          FORCE     EQUILIBRIUM NOT ACHIEVED WITHIN TOLERANCE.

 AVERAGE MOMENT                      0.00       TIME AVG. MOMENT       7.30    
                                                (FROM FORCE     FIELD)
 ALL MOMENT    RESIDUALS ARE ZERO
 LARGEST INCREMENT OF ROTATION     -1.404E-32   AT NODE          6   DOF  6
   INSTANCE: I_SAMPLE                                                                        
 LARGEST CORRECTION TO ROTATION    -2.878E-33   AT NODE          6   DOF  6
   INSTANCE: I_SAMPLE                                                                        
          THERE IS ZERO MOMENT    EVERYWHERE

  NUMBER OF EQUATIONS =     1873     NUMBER OF FLOATING PT. OPERATIONS =  2.46E+06

     CHECK POINT   START OF SOLVER    

     CHECK POINT  END OF SOLVER       

       ELAPSED USER TIME (SEC)      =  1.00000E-02
       ELAPSED SYSTEM TIME (SEC)    =   0.0000    
       ELAPSED TOTAL CPU TIME (SEC) =  1.00000E-02
       ELAPSED WALLCLOCK TIME (SEC) =          0

               CONVERGENCE CHECKS FOR EQUILIBRIUM ITERATION     6


 AVERAGE FORCE                       39.9       TIME AVG. FORCE        37.9    
 LARGEST RESIDUAL FORCE             -1.21       AT NODE        338   DOF  2
   INSTANCE: I_SAMPLE                                                                        
 LARGEST INCREMENT OF DISP.         1.004E-02   AT NODE        168   DOF  2
   INSTANCE: I_SAMPLE                                                                        
 LARGEST CORRECTION TO DISP.       -3.278E-04   AT NODE        183   DOF  2
   INSTANCE: I_SAMPLE                                                                        
          FORCE     EQUILIBRIUM NOT ACHIEVED WITHIN TOLERANCE.

 AVERAGE MOMENT                      0.00       TIME AVG. MOMENT       7.30    
                                                (FROM FORCE     FIELD)
 ALL MOMENT    RESIDUALS ARE ZERO
 LARGEST INCREMENT OF ROTATION     -1.692E-32   AT NODE          6   DOF  6
   INSTANCE: I_SAMPLE                                                                        
 LARGEST CORRECTION TO ROTATION    -2.878E-33   AT NODE          6   DOF  6
   INSTANCE: I_SAMPLE                                                                        
          THERE IS ZERO MOMENT    EVERYWHERE

  NUMBER OF EQUATIONS =     1873     NUMBER OF FLOATING PT. OPERATIONS =  2.46E+06

     CHECK POINT   START OF SOLVER    

     CHECK POINT  END OF SOLVER       

       ELAPSED USER TIME (SEC)      =  1.00000E-02
       ELAPSED SYSTEM TIME (SEC)    =   0.0000    
       ELAPSED TOTAL CPU TIME (SEC) =  1.00000E-02
       ELAPSED WALLCLOCK TIME (SEC) =          0

               CONVERGENCE CHECKS FOR EQUILIBRIUM ITERATION     7


 AVERAGE FORCE                       39.8       TIME AVG. FORCE        37.9    
 LARGEST RESIDUAL FORCE             -1.19       AT NODE        696   DOF  2
   INSTANCE: I_SAMPLE                                                                        
 LARGEST INCREMENT OF DISP.         1.004E-02   AT NODE        167   DOF  2
   INSTANCE: I_SAMPLE                                                                        
 LARGEST CORRECTION TO DISP.       -1.880E-04   AT NODE        182   DOF  2
   INSTANCE: I_SAMPLE                                                                        
          FORCE     EQUILIBRIUM NOT ACHIEVED WITHIN TOLERANCE.

 AVERAGE MOMENT                      0.00       TIME AVG. MOMENT       7.30    
                                                (FROM FORCE     FIELD)
 ALL MOMENT    RESIDUALS ARE ZERO
 LARGEST INCREMENT OF ROTATION     -1.979E-32   AT NODE          6   DOF  6
   INSTANCE: I_SAMPLE                                                                        
 LARGEST CORRECTION TO ROTATION    -2.878E-33   AT NODE          6   DOF  6
   INSTANCE: I_SAMPLE                                                                        
          THERE IS ZERO MOMENT    EVERYWHERE

  NUMBER OF EQUATIONS =     1873     NUMBER OF FLOATING PT. OPERATIONS =  2.46E+06

     CHECK POINT   START OF SOLVER    

     CHECK POINT  END OF SOLVER       

       ELAPSED USER TIME (SEC)      =  1.00000E-02
       ELAPSED SYSTEM TIME (SEC)    =   0.0000    
       ELAPSED TOTAL CPU TIME (SEC) =  1.00000E-02
       ELAPSED WALLCLOCK TIME (SEC) =          0

               CONVERGENCE CHECKS FOR EQUILIBRIUM ITERATION     8


 AVERAGE FORCE                       39.8       TIME AVG. FORCE        37.9    
 LARGEST RESIDUAL FORCE            -0.574       AT NODE        724   DOF  2
   INSTANCE: I_SAMPLE                                                                        
 LARGEST INCREMENT OF DISP.         1.003E-02   AT NODE        166   DOF  2
   INSTANCE: I_SAMPLE                                                                        
 LARGEST CORRECTION TO DISP.       -1.303E-04   AT NODE        182   DOF  2
   INSTANCE: I_SAMPLE                                                                        
          FORCE     EQUILIBRIUM NOT ACHIEVED WITHIN TOLERANCE.

 AVERAGE MOMENT                      0.00       TIME AVG. MOMENT       7.30    
                                                (FROM FORCE     FIELD)
 ALL MOMENT    RESIDUALS ARE ZERO
 LARGEST INCREMENT OF ROTATION     -2.267E-32   AT NODE          6   DOF  6
   INSTANCE: I_SAMPLE                                                                        
 LARGEST CORRECTION TO ROTATION    -2.878E-33   AT NODE          6   DOF  6
   INSTANCE: I_SAMPLE                                                                        
          THERE IS ZERO MOMENT    EVERYWHERE

  NUMBER OF EQUATIONS =     1873     NUMBER OF FLOATING PT. OPERATIONS =  2.46E+06

     CHECK POINT   START OF SOLVER    

     CHECK POINT  END OF SOLVER       

       ELAPSED USER TIME (SEC)      =  1.00000E-02
       ELAPSED SYSTEM TIME (SEC)    =   0.0000    
       ELAPSED TOTAL CPU TIME (SEC) =  1.00000E-02
       ELAPSED WALLCLOCK TIME (SEC) =          0

               CONVERGENCE CHECKS FOR EQUILIBRIUM ITERATION     9


 AVERAGE FORCE                       39.8       TIME AVG. FORCE        37.9    
 LARGEST RESIDUAL FORCE             0.205       AT NODE        697   DOF  2
   INSTANCE: I_SAMPLE                                                                        
 LARGEST INCREMENT OF DISP.         1.003E-02   AT NODE        166   DOF  2
   INSTANCE: I_SAMPLE                                                                        
 LARGEST CORRECTION TO DISP.       -5.164E-05   AT NODE        182   DOF  2
   INSTANCE: I_SAMPLE                                                                        
          FORCE     EQUILIBRIUM NOT ACHIEVED WITHIN TOLERANCE.

 AVERAGE MOMENT                      0.00       TIME AVG. MOMENT       7.30    
                                                (FROM FORCE     FIELD)
 ALL MOMENT    RESIDUALS ARE ZERO
 LARGEST INCREMENT OF ROTATION     -2.555E-32   AT NODE          6   DOF  6
   INSTANCE: I_SAMPLE                                                                        
 LARGEST CORRECTION TO ROTATION    -2.878E-33   AT NODE          6   DOF  6
   INSTANCE: I_SAMPLE                                                                        
          THERE IS ZERO MOMENT    EVERYWHERE

  NUMBER OF EQUATIONS =     1873     NUMBER OF FLOATING PT. OPERATIONS =  2.46E+06

     CHECK POINT   START OF SOLVER    

     CHECK POINT  END OF SOLVER       

       ELAPSED USER TIME (SEC)      =  1.00000E-02
       ELAPSED SYSTEM TIME (SEC)    =   0.0000    
       ELAPSED TOTAL CPU TIME (SEC) =  1.00000E-02
       ELAPSED WALLCLOCK TIME (SEC) =          0

               CONVERGENCE CHECKS FOR EQUILIBRIUM ITERATION    10


 AVERAGE FORCE                       39.8       TIME AVG. FORCE        37.9    
 LARGEST RESIDUAL FORCE            -2.867E-02   AT NODE        723   DOF  2
   INSTANCE: I_SAMPLE                                                                        
 LARGEST INCREMENT OF DISP.         1.003E-02   AT NODE        166   DOF  2
   INSTANCE: I_SAMPLE                                                                        
 LARGEST CORRECTION TO DISP.       -1.133E-05   AT NODE        182   DOF  2
   INSTANCE: I_SAMPLE                                                                        
          THE FORCE     EQUILIBRIUM EQUATIONS HAVE CONVERGED BASED ON ALTERNATIVE
          RESIDUAL CRITERION

 AVERAGE MOMENT                      0.00       TIME AVG. MOMENT       7.30    
                                                (FROM FORCE     FIELD)
 ALL MOMENT    RESIDUALS ARE ZERO
 LARGEST INCREMENT OF ROTATION     -2.843E-32   AT NODE          6   DOF  6
   INSTANCE: I_SAMPLE                                                                        
 LARGEST CORRECTION TO ROTATION    -2.878E-33   AT NODE          6   DOF  6
   INSTANCE: I_SAMPLE                                                                        
          THERE IS ZERO MOMENT    EVERYWHERE

 ITERATION SUMMARY FOR THE INCREMENT:  10 TOTAL ITERATIONS, OF WHICH
   0 ARE SEVERE DISCONTINUITY ITERATIONS AND 10 ARE EQUILIBRIUM ITERATIONS.

 TIME INCREMENT COMPLETED  1.000E-02,  FRACTION OF STEP COMPLETED  4.000E-02
 STEP TIME COMPLETED       4.000E-02,  TOTAL TIME COMPLETED        4.000E-02


  INCREMENT     5 STARTS. ATTEMPT NUMBER  1, TIME INCREMENT  1.000E-02

  NUMBER OF EQUATIONS =     1873     NUMBER OF FLOATING PT. OPERATIONS =  2.46E+06

     CHECK POINT   START OF SOLVER    

     CHECK POINT  END OF SOLVER       

       ELAPSED USER TIME (SEC)      =  1.00000E-02
       ELAPSED SYSTEM TIME (SEC)    =   0.0000    
       ELAPSED TOTAL CPU TIME (SEC) =  1.00000E-02
       ELAPSED WALLCLOCK TIME (SEC) =          0

               CONVERGENCE CHECKS FOR EQUILIBRIUM ITERATION     1


 AVERAGE FORCE                       39.2       TIME AVG. FORCE        38.1    
 LARGEST RESIDUAL FORCE             -44.8       AT NODE         37   DOF  1
   INSTANCE: I_SAMPLE                                                                        
 LARGEST INCREMENT OF DISP.         1.100E-02   AT NODE        177   DOF  2
   INSTANCE: I_SAMPLE                                                                        
 LARGEST CORRECTION TO DISP.        2.990E-03   AT NODE        183   DOF  2
   INSTANCE: I_SAMPLE                                                                        
          FORCE     EQUILIBRIUM NOT ACHIEVED WITHIN TOLERANCE.

 AVERAGE MOMENT                      0.00       TIME AVG. MOMENT       7.43    
                                                (FROM FORCE     FIELD)
 ALL MOMENT    RESIDUALS ARE ZERO
 LARGEST INCREMENT OF ROTATION     -2.233E-33   AT NODE          6   DOF  6
   INSTANCE: I_SAMPLE                                                                        
 LARGEST CORRECTION TO ROTATION     2.620E-32   AT NODE          6   DOF  6
   INSTANCE: I_SAMPLE                                                                        
          THERE IS ZERO MOMENT    EVERYWHERE

  NUMBER OF EQUATIONS =     1873     NUMBER OF FLOATING PT. OPERATIONS =  2.46E+06

     CHECK POINT   START OF SOLVER    

     CHECK POINT  END OF SOLVER       

       ELAPSED USER TIME (SEC)      =  1.00000E-02
       ELAPSED SYSTEM TIME (SEC)    =   0.0000    
       ELAPSED TOTAL CPU TIME (SEC) =  1.00000E-02
       ELAPSED WALLCLOCK TIME (SEC) =          0

               CONVERGENCE CHECKS FOR EQUILIBRIUM ITERATION     2


 AVERAGE FORCE                       39.9       TIME AVG. FORCE        38.3    
 LARGEST RESIDUAL FORCE             -8.04       AT NODE        282   DOF  2
   INSTANCE: I_SAMPLE                                                                        
 LARGEST INCREMENT OF DISP.         1.010E-02   AT NODE        177   DOF  2
   INSTANCE: I_SAMPLE                                                                        
 LARGEST CORRECTION TO DISP.       -9.022E-04   AT NODE        177   DOF  2
   INSTANCE: I_SAMPLE                                                                        
          FORCE     EQUILIBRIUM NOT ACHIEVED WITHIN TOLERANCE.

 AVERAGE MOMENT                      0.00       TIME AVG. MOMENT       7.43    
                                                (FROM FORCE     FIELD)
 ALL MOMENT    RESIDUALS ARE ZERO
 LARGEST INCREMENT OF ROTATION     -5.104E-33   AT NODE          6   DOF  6
   INSTANCE: I_SAMPLE                                                                        
 LARGEST CORRECTION TO ROTATION    -2.871E-33   AT NODE          6   DOF  6
   INSTANCE: I_SAMPLE                                                                        
          THERE IS ZERO MOMENT    EVERYWHERE

  NUMBER OF EQUATIONS =     1873     NUMBER OF FLOATING PT. OPERATIONS =  2.46E+06

     CHECK POINT   START OF SOLVER    

     CHECK POINT  END OF SOLVER       

       ELAPSED USER TIME (SEC)      =  1.00000E-02
       ELAPSED SYSTEM TIME (SEC)    =   0.0000    
       ELAPSED TOTAL CPU TIME (SEC) =  1.00000E-02
       ELAPSED WALLCLOCK TIME (SEC) =          0

               CONVERGENCE CHECKS FOR EQUILIBRIUM ITERATION     3


 AVERAGE FORCE                       39.8       TIME AVG. FORCE        38.3    
 LARGEST RESIDUAL FORCE             -4.96       AT NODE        691   DOF  2
   INSTANCE: I_SAMPLE                                                                        
 LARGEST INCREMENT OF DISP.         1.007E-02   AT NODE        175   DOF  2
   INSTANCE: I_SAMPLE                                                                        
 LARGEST CORRECTION TO DISP.       -3.819E-04   AT NODE        185   DOF  2
   INSTANCE: I_SAMPLE                                                                        
          FORCE     EQUILIBRIUM NOT ACHIEVED WITHIN TOLERANCE.

 AVERAGE MOMENT                      0.00       TIME AVG. MOMENT       7.43    
                                                (FROM FORCE     FIELD)
 ALL MOMENT    RESIDUALS ARE ZERO
 LARGEST INCREMENT OF ROTATION     -7.974E-33   AT NODE          6   DOF  6
   INSTANCE: I_SAMPLE                                                                        
 LARGEST CORRECTION TO ROTATION    -2.870E-33   AT NODE          6   DOF  6
   INSTANCE: I_SAMPLE                                                                        
          THERE IS ZERO MOMENT    EVERYWHERE

  NUMBER OF EQUATIONS =     1873     NUMBER OF FLOATING PT. OPERATIONS =  2.46E+06

     CHECK POINT   START OF SOLVER    

     CHECK POINT  END OF SOLVER       

       ELAPSED USER TIME (SEC)      =  1.00000E-02
       ELAPSED SYSTEM TIME (SEC)    =   0.0000    
       ELAPSED TOTAL CPU TIME (SEC) =  1.00000E-02
       ELAPSED WALLCLOCK TIME (SEC) =          0

               CONVERGENCE CHECKS FOR EQUILIBRIUM ITERATION     4


 AVERAGE FORCE                       39.8       TIME AVG. FORCE        38.3    
 LARGEST RESIDUAL FORCE             -2.85       AT NODE        729   DOF  2
   INSTANCE: I_SAMPLE                                                                        
 LARGEST INCREMENT OF DISP.         1.006E-02   AT NODE        174   DOF  2
   INSTANCE: I_SAMPLE                                                                        
 LARGEST CORRECTION TO DISP.       -2.741E-04   AT NODE        185   DOF  2
   INSTANCE: I_SAMPLE                                                                        
          FORCE     EQUILIBRIUM NOT ACHIEVED WITHIN TOLERANCE.

 AVERAGE MOMENT                      0.00       TIME AVG. MOMENT       7.43    
                                                (FROM FORCE     FIELD)
 ALL MOMENT    RESIDUALS ARE ZERO
 LARGEST INCREMENT OF ROTATION     -1.084E-32   AT NODE          6   DOF  6
   INSTANCE: I_SAMPLE                                                                        
 LARGEST CORRECTION TO ROTATION    -2.870E-33   AT NODE          6   DOF  6
   INSTANCE: I_SAMPLE                                                                        
          THERE IS ZERO MOMENT    EVERYWHERE

  NUMBER OF EQUATIONS =     1873     NUMBER OF FLOATING PT. OPERATIONS =  2.46E+06

     CHECK POINT   START OF SOLVER    

     CHECK POINT  END OF SOLVER       

       ELAPSED USER TIME (SEC)      =   0.0000    
       ELAPSED SYSTEM TIME (SEC)    =   0.0000    
       ELAPSED TOTAL CPU TIME (SEC) =   0.0000    
       ELAPSED WALLCLOCK TIME (SEC) =          0

               CONVERGENCE CHECKS FOR EQUILIBRIUM ITERATION     5


 AVERAGE FORCE                       39.8       TIME AVG. FORCE        38.3    
 LARGEST RESIDUAL FORCE             -1.25       AT NODE        586   DOF  2
   INSTANCE: I_SAMPLE                                                                        
 LARGEST INCREMENT OF DISP.         1.006E-02   AT NODE        173   DOF  2
   INSTANCE: I_SAMPLE                                                                        
 LARGEST CORRECTION TO DISP.       -1.511E-04   AT NODE        184   DOF  2
   INSTANCE: I_SAMPLE                                                                        
          FORCE     EQUILIBRIUM NOT ACHIEVED WITHIN TOLERANCE.

 AVERAGE MOMENT                      0.00       TIME AVG. MOMENT       7.43    
                                                (FROM FORCE     FIELD)
 ALL MOMENT    RESIDUALS ARE ZERO
 LARGEST INCREMENT OF ROTATION     -1.371E-32   AT NODE          6   DOF  6
   INSTANCE: I_SAMPLE                                                                        
 LARGEST CORRECTION TO ROTATION    -2.870E-33   AT NODE          6   DOF  6
   INSTANCE: I_SAMPLE                                                                        
          THERE IS ZERO MOMENT    EVERYWHERE

  NUMBER OF EQUATIONS =     1873     NUMBER OF FLOATING PT. OPERATIONS =  2.46E+06

     CHECK POINT   START OF SOLVER    

     CHECK POINT  END OF SOLVER       

       ELAPSED USER TIME (SEC)      =  2.00000E-02
       ELAPSED SYSTEM TIME (SEC)    =   0.0000    
       ELAPSED TOTAL CPU TIME (SEC) =  2.00000E-02
       ELAPSED WALLCLOCK TIME (SEC) =          0

               CONVERGENCE CHECKS FOR EQUILIBRIUM ITERATION     6


 AVERAGE FORCE                       39.8       TIME AVG. FORCE        38.3    
 LARGEST RESIDUAL FORCE             0.294       AT NODE        695   DOF  2
   INSTANCE: I_SAMPLE                                                                        
 LARGEST INCREMENT OF DISP.         1.005E-02   AT NODE        172   DOF  2
   INSTANCE: I_SAMPLE                                                                        
 LARGEST CORRECTION TO DISP.       -5.611E-05   AT NODE        184   DOF  2
   INSTANCE: I_SAMPLE                                                                        
          FORCE     EQUILIBRIUM NOT ACHIEVED WITHIN TOLERANCE.

 AVERAGE MOMENT                      0.00       TIME AVG. MOMENT       7.43    
                                                (FROM FORCE     FIELD)
 ALL MOMENT    RESIDUALS ARE ZERO
 LARGEST INCREMENT OF ROTATION     -1.658E-32   AT NODE          6   DOF  6
   INSTANCE: I_SAMPLE                                                                        
 LARGEST CORRECTION TO ROTATION    -2.870E-33   AT NODE          6   DOF  6
   INSTANCE: I_SAMPLE                                                                        
          THERE IS ZERO MOMENT    EVERYWHERE

  NUMBER OF EQUATIONS =     1873     NUMBER OF FLOATING PT. OPERATIONS =  2.46E+06

     CHECK POINT   START OF SOLVER    

     CHECK POINT  END OF SOLVER       

       ELAPSED USER TIME (SEC)      =   0.0000    
       ELAPSED SYSTEM TIME (SEC)    =   0.0000    
       ELAPSED TOTAL CPU TIME (SEC) =   0.0000    
       ELAPSED WALLCLOCK TIME (SEC) =          0

               CONVERGENCE CHECKS FOR EQUILIBRIUM ITERATION     7


 AVERAGE FORCE                       39.8       TIME AVG. FORCE        38.2    
 LARGEST RESIDUAL FORCE            -4.356E-02   AT NODE        727   DOF  2
   INSTANCE: I_SAMPLE                                                                        
 LARGEST INCREMENT OF DISP.         1.005E-02   AT NODE        172   DOF  2
   INSTANCE: I_SAMPLE                                                                        
 LARGEST CORRECTION TO DISP.       -9.703E-06   AT NODE        183   DOF  2
   INSTANCE: I_SAMPLE                                                                        
          THE FORCE     EQUILIBRIUM EQUATIONS HAVE CONVERGED

 AVERAGE MOMENT                      0.00       TIME AVG. MOMENT       7.43    
                                                (FROM FORCE     FIELD)
 ALL MOMENT    RESIDUALS ARE ZERO
 LARGEST INCREMENT OF ROTATION     -1.945E-32   AT NODE          6   DOF  6
   INSTANCE: I_SAMPLE                                                                        
 LARGEST CORRECTION TO ROTATION    -2.870E-33   AT NODE          6   DOF  6
   INSTANCE: I_SAMPLE                                                                        
          THERE IS ZERO MOMENT    EVERYWHERE

 ITERATION SUMMARY FOR THE INCREMENT:   7 TOTAL ITERATIONS, OF WHICH
   0 ARE SEVERE DISCONTINUITY ITERATIONS AND  7 ARE EQUILIBRIUM ITERATIONS.

 TIME INCREMENT COMPLETED  1.000E-02,  FRACTION OF STEP COMPLETED  5.000E-02
 STEP TIME COMPLETED       5.000E-02,  TOTAL TIME COMPLETED        5.000E-02


  INCREMENT     6 STARTS. ATTEMPT NUMBER  1, TIME INCREMENT  1.000E-02

  NUMBER OF EQUATIONS =     1873     NUMBER OF FLOATING PT. OPERATIONS =  2.46E+06

     CHECK POINT   START OF SOLVER    

     CHECK POINT  END OF SOLVER       

       ELAPSED USER TIME (SEC)      =   0.0000    
       ELAPSED SYSTEM TIME (SEC)    =   0.0000    
       ELAPSED TOTAL CPU TIME (SEC) =   0.0000    
       ELAPSED WALLCLOCK TIME (SEC) =          0

               CONVERGENCE CHECKS FOR EQUILIBRIUM ITERATION     1


 AVERAGE FORCE                       39.8       TIME AVG. FORCE        38.5    
 LARGEST RESIDUAL FORCE              2.50       AT NODE        695   DOF  2
   INSTANCE: I_SAMPLE                                                                        
 LARGEST INCREMENT OF DISP.         1.007E-02   AT NODE        174   DOF  2
   INSTANCE: I_SAMPLE                                                                        
 LARGEST CORRECTION TO DISP.        6.350E-04   AT NODE        186   DOF  2
   INSTANCE: I_SAMPLE                                                                        
          FORCE     EQUILIBRIUM NOT ACHIEVED WITHIN TOLERANCE.

 AVERAGE MOMENT                      0.00       TIME AVG. MOMENT       7.50    
                                                (FROM FORCE     FIELD)
 ALL MOMENT    RESIDUALS ARE ZERO
 LARGEST INCREMENT OF ROTATION     -2.013E-33   AT NODE          6   DOF  6
   INSTANCE: I_SAMPLE                                                                        
 LARGEST CORRECTION TO ROTATION     1.744E-32   AT NODE          6   DOF  6
   INSTANCE: I_SAMPLE                                                                        
          THERE IS ZERO MOMENT    EVERYWHERE

  NUMBER OF EQUATIONS =     1873     NUMBER OF FLOATING PT. OPERATIONS =  2.46E+06

     CHECK POINT   START OF SOLVER    

     CHECK POINT  END OF SOLVER       

       ELAPSED USER TIME (SEC)      =  2.00000E-02
       ELAPSED SYSTEM TIME (SEC)    =   0.0000    
       ELAPSED TOTAL CPU TIME (SEC) =  2.00000E-02
       ELAPSED WALLCLOCK TIME (SEC) =          0

               CONVERGENCE CHECKS FOR EQUILIBRIUM ITERATION     2


 AVERAGE FORCE                       39.8       TIME AVG. FORCE        38.5    
 LARGEST RESIDUAL FORCE            -0.356       AT NODE         38   DOF  2
   INSTANCE: I_SAMPLE                                                                        
 LARGEST INCREMENT OF DISP.         1.006E-02   AT NODE        173   DOF  2
   INSTANCE: I_SAMPLE                                                                        
 LARGEST CORRECTION TO DISP.       -6.553E-05   AT NODE        184   DOF  2
   INSTANCE: I_SAMPLE                                                                        
          FORCE     EQUILIBRIUM NOT ACHIEVED WITHIN TOLERANCE.

 AVERAGE MOMENT                      0.00       TIME AVG. MOMENT       7.50    
                                                (FROM FORCE     FIELD)
 ALL MOMENT    RESIDUALS ARE ZERO
 LARGEST INCREMENT OF ROTATION     -4.874E-33   AT NODE          6   DOF  6
   INSTANCE: I_SAMPLE                                                                        
 LARGEST CORRECTION TO ROTATION    -2.861E-33   AT NODE          6   DOF  6
   INSTANCE: I_SAMPLE                                                                        
          THERE IS ZERO MOMENT    EVERYWHERE

  NUMBER OF EQUATIONS =     1873     NUMBER OF FLOATING PT. OPERATIONS =  2.46E+06

     CHECK POINT   START OF SOLVER    

     CHECK POINT  END OF SOLVER       

       ELAPSED USER TIME (SEC)      =  1.00000E-02
       ELAPSED SYSTEM TIME (SEC)    =   0.0000    
       ELAPSED TOTAL CPU TIME (SEC) =  1.00000E-02
       ELAPSED WALLCLOCK TIME (SEC) =          0

               CONVERGENCE CHECKS FOR EQUILIBRIUM ITERATION     3


 AVERAGE FORCE                       39.8       TIME AVG. FORCE        38.5    
 LARGEST RESIDUAL FORCE             7.849E-02   AT NODE        582   DOF  2
   INSTANCE: I_SAMPLE                                                                        
 LARGEST INCREMENT OF DISP.         1.005E-02   AT NODE        173   DOF  2
   INSTANCE: I_SAMPLE                                                                        
 LARGEST CORRECTION TO DISP.       -9.449E-06   AT NODE        184   DOF  2
   INSTANCE: I_SAMPLE                                                                        
          THE FORCE     EQUILIBRIUM EQUATIONS HAVE CONVERGED

 AVERAGE MOMENT                      0.00       TIME AVG. MOMENT       7.50    
                                                (FROM FORCE     FIELD)
 ALL MOMENT    RESIDUALS ARE ZERO
 LARGEST INCREMENT OF ROTATION     -7.735E-33   AT NODE          6   DOF  6
   INSTANCE: I_SAMPLE                                                                        
 LARGEST CORRECTION TO ROTATION    -2.861E-33   AT NODE          6   DOF  6
   INSTANCE: I_SAMPLE                                                                        
          THERE IS ZERO MOMENT    EVERYWHERE

 ITERATION SUMMARY FOR THE INCREMENT:   3 TOTAL ITERATIONS, OF WHICH
   0 ARE SEVERE DISCONTINUITY ITERATIONS AND  3 ARE EQUILIBRIUM ITERATIONS.

 TIME INCREMENT COMPLETED  1.000E-02,  FRACTION OF STEP COMPLETED  6.000E-02
 STEP TIME COMPLETED       6.000E-02,  TOTAL TIME COMPLETED        6.000E-02


  INCREMENT     7 STARTS. ATTEMPT NUMBER  1, TIME INCREMENT  1.000E-02

  NUMBER OF EQUATIONS =     1873     NUMBER OF FLOATING PT. OPERATIONS =  2.46E+06

     CHECK POINT   START OF SOLVER    

     CHECK POINT  END OF SOLVER       

       ELAPSED USER TIME (SEC)      =  1.00000E-02
       ELAPSED SYSTEM TIME (SEC)    =   0.0000    
       ELAPSED TOTAL CPU TIME (SEC) =  1.00000E-02
       ELAPSED WALLCLOCK TIME (SEC) =          0

               CONVERGENCE CHECKS FOR EQUILIBRIUM ITERATION     1


 AVERAGE FORCE                       39.8       TIME AVG. FORCE        38.7    
 LARGEST RESIDUAL FORCE              1.28       AT NODE        339   DOF  2
   INSTANCE: I_SAMPLE                                                                        
 LARGEST INCREMENT OF DISP.         1.006E-02   AT NODE        175   DOF  2
   INSTANCE: I_SAMPLE                                                                        
 LARGEST CORRECTION TO DISP.        4.545E-04   AT NODE        186   DOF  2
   INSTANCE: I_SAMPLE                                                                        
          FORCE     EQUILIBRIUM NOT ACHIEVED WITHIN TOLERANCE.

 AVERAGE MOMENT                      0.00       TIME AVG. MOMENT       7.55    
                                                (FROM FORCE     FIELD)
 ALL MOMENT    RESIDUALS ARE ZERO
 LARGEST INCREMENT OF ROTATION     -1.912E-33   AT NODE          6   DOF  6
   INSTANCE: I_SAMPLE                                                                        
 LARGEST CORRECTION TO ROTATION     5.823E-33   AT NODE          6   DOF  6
   INSTANCE: I_SAMPLE                                                                        
          THERE IS ZERO MOMENT    EVERYWHERE

  NUMBER OF EQUATIONS =     1873     NUMBER OF FLOATING PT. OPERATIONS =  2.46E+06

     CHECK POINT   START OF SOLVER    

     CHECK POINT  END OF SOLVER       

       ELAPSED USER TIME (SEC)      =   0.0000    
       ELAPSED SYSTEM TIME (SEC)    =   0.0000    
       ELAPSED TOTAL CPU TIME (SEC) =   0.0000    
       ELAPSED WALLCLOCK TIME (SEC) =          0

               CONVERGENCE CHECKS FOR EQUILIBRIUM ITERATION     2


 AVERAGE FORCE                       39.8       TIME AVG. FORCE        38.7    
 LARGEST RESIDUAL FORCE             0.182       AT NODE        391   DOF  2
   INSTANCE: I_SAMPLE                                                                        
 LARGEST INCREMENT OF DISP.         1.006E-02   AT NODE        174   DOF  2
   INSTANCE: I_SAMPLE                                                                        
 LARGEST CORRECTION TO DISP.       -3.678E-05   AT NODE        185   DOF  2
   INSTANCE: I_SAMPLE                                                                        
          THE FORCE     EQUILIBRIUM EQUATIONS HAVE CONVERGED

 AVERAGE MOMENT                      0.00       TIME AVG. MOMENT       7.55    
                                                (FROM FORCE     FIELD)
 ALL MOMENT    RESIDUALS ARE ZERO
 LARGEST INCREMENT OF ROTATION     -4.763E-33   AT NODE          6   DOF  6
   INSTANCE: I_SAMPLE                                                                        
 LARGEST CORRECTION TO ROTATION    -2.851E-33   AT NODE          6   DOF  6
   INSTANCE: I_SAMPLE                                                                        
          THERE IS ZERO MOMENT    EVERYWHERE

 ITERATION SUMMARY FOR THE INCREMENT:   2 TOTAL ITERATIONS, OF WHICH
   0 ARE SEVERE DISCONTINUITY ITERATIONS AND  2 ARE EQUILIBRIUM ITERATIONS.

 TIME INCREMENT COMPLETED  1.000E-02,  FRACTION OF STEP COMPLETED  7.000E-02
 STEP TIME COMPLETED       7.000E-02,  TOTAL TIME COMPLETED        7.000E-02


  INCREMENT     8 STARTS. ATTEMPT NUMBER  1, TIME INCREMENT  1.000E-02

  NUMBER OF EQUATIONS =     1873     NUMBER OF FLOATING PT. OPERATIONS =  2.46E+06

     CHECK POINT   START OF SOLVER    

     CHECK POINT  END OF SOLVER       

       ELAPSED USER TIME (SEC)      =  1.00000E-02
       ELAPSED SYSTEM TIME (SEC)    =   0.0000    
       ELAPSED TOTAL CPU TIME (SEC) =  1.00000E-02
       ELAPSED WALLCLOCK TIME (SEC) =          0

               CONVERGENCE CHECKS FOR EQUILIBRIUM ITERATION     1


 AVERAGE FORCE                       39.7       TIME AVG. FORCE        38.8    
 LARGEST RESIDUAL FORCE            -0.540       AT NODE        729   DOF  2
   INSTANCE: I_SAMPLE                                                                        
 LARGEST INCREMENT OF DISP.         1.006E-02   AT NODE        175   DOF  2
   INSTANCE: I_SAMPLE                                                                        
 LARGEST CORRECTION TO DISP.        3.658E-04   AT NODE        187   DOF  2
   INSTANCE: I_SAMPLE                                                                        
          FORCE     EQUILIBRIUM NOT ACHIEVED WITHIN TOLERANCE.

 AVERAGE MOMENT                      0.00       TIME AVG. MOMENT       7.59    
                                                (FROM FORCE     FIELD)
 ALL MOMENT    RESIDUALS ARE ZERO
 LARGEST INCREMENT OF ROTATION     -1.840E-33   AT NODE          6   DOF  6
   INSTANCE: I_SAMPLE                                                                        
 LARGEST CORRECTION TO ROTATION     2.923E-33   AT NODE          6   DOF  6
   INSTANCE: I_SAMPLE                                                                        
          THERE IS ZERO MOMENT    EVERYWHERE

  NUMBER OF EQUATIONS =     1873     NUMBER OF FLOATING PT. OPERATIONS =  2.46E+06

     CHECK POINT   START OF SOLVER    

     CHECK POINT  END OF SOLVER       

       ELAPSED USER TIME (SEC)      =  1.00000E-02
       ELAPSED SYSTEM TIME (SEC)    =   0.0000    
       ELAPSED TOTAL CPU TIME (SEC) =  1.00000E-02
       ELAPSED WALLCLOCK TIME (SEC) =          0

               CONVERGENCE CHECKS FOR EQUILIBRIUM ITERATION     2


 AVERAGE FORCE                       39.7       TIME AVG. FORCE        38.8    
 LARGEST RESIDUAL FORCE            -8.362E-02   AT NODE        505   DOF  2
   INSTANCE: I_SAMPLE                                                                        
 LARGEST INCREMENT OF DISP.         1.006E-02   AT NODE        175   DOF  2
   INSTANCE: I_SAMPLE                                                                        
 LARGEST CORRECTION TO DISP.       -2.248E-05   AT NODE        185   DOF  2
   INSTANCE: I_SAMPLE                                                                        
          THE FORCE     EQUILIBRIUM EQUATIONS HAVE CONVERGED

 AVERAGE MOMENT                      0.00       TIME AVG. MOMENT       7.59    
                                                (FROM FORCE     FIELD)
 ALL MOMENT    RESIDUALS ARE ZERO
 LARGEST INCREMENT OF ROTATION     -4.680E-33   AT NODE          6   DOF  6
   INSTANCE: I_SAMPLE                                                                        
 LARGEST CORRECTION TO ROTATION    -2.840E-33   AT NODE          6   DOF  6
   INSTANCE: I_SAMPLE                                                                        
          THERE IS ZERO MOMENT    EVERYWHERE

 ITERATION SUMMARY FOR THE INCREMENT:   2 TOTAL ITERATIONS, OF WHICH
   0 ARE SEVERE DISCONTINUITY ITERATIONS AND  2 ARE EQUILIBRIUM ITERATIONS.

 TIME INCREMENT COMPLETED  1.000E-02,  FRACTION OF STEP COMPLETED  8.000E-02
 STEP TIME COMPLETED       8.000E-02,  TOTAL TIME COMPLETED        8.000E-02


  INCREMENT     9 STARTS. ATTEMPT NUMBER  1, TIME INCREMENT  1.000E-02

  NUMBER OF EQUATIONS =     1873     NUMBER OF FLOATING PT. OPERATIONS =  2.46E+06

     CHECK POINT   START OF SOLVER    

     CHECK POINT  END OF SOLVER       

       ELAPSED USER TIME (SEC)      =  1.00000E-02
       ELAPSED SYSTEM TIME (SEC)    =   0.0000    
       ELAPSED TOTAL CPU TIME (SEC) =  1.00000E-02
       ELAPSED WALLCLOCK TIME (SEC) =          0

               CONVERGENCE CHECKS FOR EQUILIBRIUM ITERATION     1


 AVERAGE FORCE                       39.6       TIME AVG. FORCE        38.9    
 LARGEST RESIDUAL FORCE             0.740       AT NODE        460   DOF  2
   INSTANCE: I_SAMPLE                                                                        
 LARGEST INCREMENT OF DISP.         1.006E-02   AT NODE        176   DOF  2
   INSTANCE: I_SAMPLE                                                                        
 LARGEST CORRECTION TO DISP.        3.215E-04   AT NODE        187   DOF  2
   INSTANCE: I_SAMPLE                                                                        
          FORCE     EQUILIBRIUM NOT ACHIEVED WITHIN TOLERANCE.

 AVERAGE MOMENT                      0.00       TIME AVG. MOMENT       7.61    
                                                (FROM FORCE     FIELD)
 ALL MOMENT    RESIDUALS ARE ZERO
 LARGEST INCREMENT OF ROTATION     -1.767E-33   AT NODE          6   DOF  6
   INSTANCE: I_SAMPLE                                                                        
 LARGEST CORRECTION TO ROTATION     2.913E-33   AT NODE          6   DOF  6
   INSTANCE: I_SAMPLE                                                                        
          THERE IS ZERO MOMENT    EVERYWHERE

  NUMBER OF EQUATIONS =     1873     NUMBER OF FLOATING PT. OPERATIONS =  2.46E+06

     CHECK POINT   START OF SOLVER    

     CHECK POINT  END OF SOLVER       

       ELAPSED USER TIME (SEC)      =  1.00000E-02
       ELAPSED SYSTEM TIME (SEC)    =   0.0000    
       ELAPSED TOTAL CPU TIME (SEC) =  1.00000E-02
       ELAPSED WALLCLOCK TIME (SEC) =          0

               CONVERGENCE CHECKS FOR EQUILIBRIUM ITERATION     2


 AVERAGE FORCE                       39.6       TIME AVG. FORCE        38.9    
 LARGEST RESIDUAL FORCE            -0.111       AT NODE        323   DOF  2
   INSTANCE: I_SAMPLE                                                                        
 LARGEST INCREMENT OF DISP.         1.006E-02   AT NODE        176   DOF  2
   INSTANCE: I_SAMPLE                                                                        
 LARGEST CORRECTION TO DISP.       -2.006E-05   AT NODE        186   DOF  2
   INSTANCE: I_SAMPLE                                                                        
          THE FORCE     EQUILIBRIUM EQUATIONS HAVE CONVERGED

 AVERAGE MOMENT                      0.00       TIME AVG. MOMENT       7.61    
                                                (FROM FORCE     FIELD)
 ALL MOMENT    RESIDUALS ARE ZERO
 LARGEST INCREMENT OF ROTATION     -4.596E-33   AT NODE          6   DOF  6
   INSTANCE: I_SAMPLE                                                                        
 LARGEST CORRECTION TO ROTATION    -2.829E-33   AT NODE          6   DOF  6
   INSTANCE: I_SAMPLE                                                                        
          THERE IS ZERO MOMENT    EVERYWHERE

 ITERATION SUMMARY FOR THE INCREMENT:   2 TOTAL ITERATIONS, OF WHICH
   0 ARE SEVERE DISCONTINUITY ITERATIONS AND  2 ARE EQUILIBRIUM ITERATIONS.

 TIME INCREMENT COMPLETED  1.000E-02,  FRACTION OF STEP COMPLETED  9.000E-02
 STEP TIME COMPLETED       9.000E-02,  TOTAL TIME COMPLETED        9.000E-02


  INCREMENT    10 STARTS. ATTEMPT NUMBER  1, TIME INCREMENT  1.000E-02

  NUMBER OF EQUATIONS =     1873     NUMBER OF FLOATING PT. OPERATIONS =  2.46E+06

     CHECK POINT   START OF SOLVER    

     CHECK POINT  END OF SOLVER       

       ELAPSED USER TIME (SEC)      =  1.00000E-02
       ELAPSED SYSTEM TIME (SEC)    =   0.0000    
       ELAPSED TOTAL CPU TIME (SEC) =  1.00000E-02
       ELAPSED WALLCLOCK TIME (SEC) =          0

               CONVERGENCE CHECKS FOR EQUILIBRIUM ITERATION     1


 AVERAGE FORCE                       39.5       TIME AVG. FORCE        39.0    
 LARGEST RESIDUAL FORCE            -0.435       AT NODE        380   DOF  2
   INSTANCE: I_SAMPLE                                                                        
 LARGEST INCREMENT OF DISP.         1.006E-02   AT NODE        177   DOF  2
   INSTANCE: I_SAMPLE                                                                        
 LARGEST CORRECTION TO DISP.        2.823E-04   AT NODE        188   DOF  2
   INSTANCE: I_SAMPLE                                                                        
          FORCE     EQUILIBRIUM NOT ACHIEVED WITHIN TOLERANCE.

 AVERAGE MOMENT                      0.00       TIME AVG. MOMENT       7.63    
                                                (FROM FORCE     FIELD)
 ALL MOMENT    RESIDUALS ARE ZERO
 LARGEST INCREMENT OF ROTATION     -1.693E-33   AT NODE          6   DOF  6
   INSTANCE: I_SAMPLE                                                                        
 LARGEST CORRECTION TO ROTATION     2.903E-33   AT NODE          6   DOF  6
   INSTANCE: I_SAMPLE                                                                        
          THERE IS ZERO MOMENT    EVERYWHERE

  NUMBER OF EQUATIONS =     1873     NUMBER OF FLOATING PT. OPERATIONS =  2.46E+06

     CHECK POINT   START OF SOLVER    

     CHECK POINT  END OF SOLVER       

       ELAPSED USER TIME (SEC)      =  1.00000E-02
       ELAPSED SYSTEM TIME (SEC)    =   0.0000    
       ELAPSED TOTAL CPU TIME (SEC) =  1.00000E-02
       ELAPSED WALLCLOCK TIME (SEC) =          0

               CONVERGENCE CHECKS FOR EQUILIBRIUM ITERATION     2


 AVERAGE FORCE                       39.5       TIME AVG. FORCE        39.0    
 LARGEST RESIDUAL FORCE            -6.630E-02   AT NODE        691   DOF  2
   INSTANCE: I_SAMPLE                                                                        
 LARGEST INCREMENT OF DISP.         1.006E-02   AT NODE        177   DOF  2
   INSTANCE: I_SAMPLE                                                                        
 LARGEST CORRECTION TO DISP.       -1.623E-05   AT NODE        186   DOF  2
   INSTANCE: I_SAMPLE                                                                        
          THE FORCE     EQUILIBRIUM EQUATIONS HAVE CONVERGED

 AVERAGE MOMENT                      0.00       TIME AVG. MOMENT       7.63    
                                                (FROM FORCE     FIELD)
 ALL MOMENT    RESIDUALS ARE ZERO
 LARGEST INCREMENT OF ROTATION     -4.511E-33   AT NODE          6   DOF  6
   INSTANCE: I_SAMPLE                                                                        
 LARGEST CORRECTION TO ROTATION    -2.818E-33   AT NODE          6   DOF  6
   INSTANCE: I_SAMPLE                                                                        
          THERE IS ZERO MOMENT    EVERYWHERE

 ITERATION SUMMARY FOR THE INCREMENT:   2 TOTAL ITERATIONS, OF WHICH
   0 ARE SEVERE DISCONTINUITY ITERATIONS AND  2 ARE EQUILIBRIUM ITERATIONS.

 TIME INCREMENT COMPLETED  1.000E-02,  FRACTION OF STEP COMPLETED  0.100    
 STEP TIME COMPLETED       0.100    ,  TOTAL TIME COMPLETED        0.100    


  INCREMENT    11 STARTS. ATTEMPT NUMBER  1, TIME INCREMENT  1.000E-02

  NUMBER OF EQUATIONS =     1873     NUMBER OF FLOATING PT. OPERATIONS =  2.46E+06

     CHECK POINT   START OF SOLVER    

     CHECK POINT  END OF SOLVER       

       ELAPSED USER TIME (SEC)      =  1.00000E-02
       ELAPSED SYSTEM TIME (SEC)    =   0.0000    
       ELAPSED TOTAL CPU TIME (SEC) =  1.00000E-02
       ELAPSED WALLCLOCK TIME (SEC) =          0

               CONVERGENCE CHECKS FOR EQUILIBRIUM ITERATION     1


 AVERAGE FORCE                       39.4       TIME AVG. FORCE        39.0    
 LARGEST RESIDUAL FORCE            -0.549       AT NODE        621   DOF  2
   INSTANCE: I_SAMPLE                                                                        
 LARGEST INCREMENT OF DISP.         1.007E-02   AT NODE        178   DOF  2
   INSTANCE: I_SAMPLE                                                                        
 LARGEST CORRECTION TO DISP.        2.599E-04   AT NODE        188   DOF  2
   INSTANCE: I_SAMPLE                                                                        
          FORCE     EQUILIBRIUM NOT ACHIEVED WITHIN TOLERANCE.

 AVERAGE MOMENT                      0.00       TIME AVG. MOMENT       7.64    
                                                (FROM FORCE     FIELD)
 ALL MOMENT    RESIDUALS ARE ZERO
 LARGEST INCREMENT OF ROTATION     -1.619E-33   AT NODE          6   DOF  6
   INSTANCE: I_SAMPLE                                                                        
 LARGEST CORRECTION TO ROTATION     2.892E-33   AT NODE          6   DOF  6
   INSTANCE: I_SAMPLE                                                                        
          THERE IS ZERO MOMENT    EVERYWHERE

  NUMBER OF EQUATIONS =     1873     NUMBER OF FLOATING PT. OPERATIONS =  2.46E+06

     CHECK POINT   START OF SOLVER    

     CHECK POINT  END OF SOLVER       

       ELAPSED USER TIME (SEC)      =  1.00000E-02
       ELAPSED SYSTEM TIME (SEC)    =   0.0000    
       ELAPSED TOTAL CPU TIME (SEC) =  1.00000E-02
       ELAPSED WALLCLOCK TIME (SEC) =          0

               CONVERGENCE CHECKS FOR EQUILIBRIUM ITERATION     2


 AVERAGE FORCE                       39.4       TIME AVG. FORCE        39.0    
 LARGEST RESIDUAL FORCE            -5.638E-02   AT NODE        731   DOF  2
   INSTANCE: I_SAMPLE                                                                        
 LARGEST INCREMENT OF DISP.         1.006E-02   AT NODE        178   DOF  2
   INSTANCE: I_SAMPLE                                                                        
 LARGEST CORRECTION TO DISP.       -1.455E-05   AT NODE        186   DOF  2
   INSTANCE: I_SAMPLE                                                                        
          THE FORCE     EQUILIBRIUM EQUATIONS HAVE CONVERGED

 AVERAGE MOMENT                      0.00       TIME AVG. MOMENT       7.64    
                                                (FROM FORCE     FIELD)
 ALL MOMENT    RESIDUALS ARE ZERO
 LARGEST INCREMENT OF ROTATION     -4.425E-33   AT NODE          6   DOF  6
   INSTANCE: I_SAMPLE                                                                        
 LARGEST CORRECTION TO ROTATION    -2.806E-33   AT NODE          6   DOF  6
   INSTANCE: I_SAMPLE                                                                        
          THERE IS ZERO MOMENT    EVERYWHERE

 ITERATION SUMMARY FOR THE INCREMENT:   2 TOTAL ITERATIONS, OF WHICH
   0 ARE SEVERE DISCONTINUITY ITERATIONS AND  2 ARE EQUILIBRIUM ITERATIONS.

 TIME INCREMENT COMPLETED  1.000E-02,  FRACTION OF STEP COMPLETED  0.110    
 STEP TIME COMPLETED       0.110    ,  TOTAL TIME COMPLETED        0.110    


  INCREMENT    12 STARTS. ATTEMPT NUMBER  1, TIME INCREMENT  1.000E-02

  NUMBER OF EQUATIONS =     1873     NUMBER OF FLOATING PT. OPERATIONS =  2.46E+06

     CHECK POINT   START OF SOLVER    

     CHECK POINT  END OF SOLVER       

       ELAPSED USER TIME (SEC)      =   0.0000    
       ELAPSED SYSTEM TIME (SEC)    =  1.00000E-02
       ELAPSED TOTAL CPU TIME (SEC) =  1.00000E-02
       ELAPSED WALLCLOCK TIME (SEC) =          0

               CONVERGENCE CHECKS FOR EQUILIBRIUM ITERATION     1


 AVERAGE FORCE                       39.3       TIME AVG. FORCE        39.0    
 LARGEST RESIDUAL FORCE            -0.404       AT NODE        731   DOF  2
   INSTANCE: I_SAMPLE                                                                        
 LARGEST INCREMENT OF DISP.         1.007E-02   AT NODE        178   DOF  2
   INSTANCE: I_SAMPLE                                                                        
 LARGEST CORRECTION TO DISP.        2.387E-04   AT NODE        188   DOF  2
   INSTANCE: I_SAMPLE                                                                        
          FORCE     EQUILIBRIUM NOT ACHIEVED WITHIN TOLERANCE.

[...]
   INSTANCE: I_SAMPLE                                                                        
 LARGEST INCREMENT OF DISP.        -1.100E-02   AT NODE          2   DOF  1
   INSTANCE: I_SAMPLE                                                                        
 LARGEST CORRECTION TO DISP.        2.492E-04   AT NODE         14   DOF  1
   INSTANCE: I_SAMPLE                                                                        
          FORCE     EQUILIBRIUM NOT ACHIEVED WITHIN TOLERANCE.

 AVERAGE MOMENT                      0.00       TIME AVG. MOMENT       6.14    
                                                (FROM FORCE     FIELD)
 ALL MOMENT    RESIDUALS ARE ZERO
 LARGEST INCREMENT OF ROTATION      8.227E-33   AT NODE          6   DOF  6
   INSTANCE: I_SAMPLE                                                                        
 LARGEST CORRECTION TO ROTATION     1.528E-33   AT NODE          6   DOF  6
   INSTANCE: I_SAMPLE                                                                        
          THERE IS ZERO MOMENT    EVERYWHERE

  NUMBER OF EQUATIONS =     1873     NUMBER OF FLOATING PT. OPERATIONS =  2.46E+06

     CHECK POINT   START OF SOLVER    

     CHECK POINT  END OF SOLVER       

       ELAPSED USER TIME (SEC)      =   0.0000    
       ELAPSED SYSTEM TIME (SEC)    =   0.0000    
       ELAPSED TOTAL CPU TIME (SEC) =   0.0000    
       ELAPSED WALLCLOCK TIME (SEC) =          0

               CONVERGENCE CHECKS FOR EQUILIBRIUM ITERATION     2


 AVERAGE FORCE                       18.6       TIME AVG. FORCE        31.2    
 LARGEST RESIDUAL FORCE             9.175E-04   AT NODE         14   DOF  2
   INSTANCE: I_SAMPLE                                                                        
 LARGEST INCREMENT OF DISP.        -1.100E-02   AT NODE          2   DOF  1
   INSTANCE: I_SAMPLE                                                                        
 LARGEST CORRECTION TO DISP.        6.649E-06   AT NODE          2   DOF  1
   INSTANCE: I_SAMPLE                                                                        
          THE FORCE     EQUILIBRIUM EQUATIONS HAVE CONVERGED

 AVERAGE MOMENT                      0.00       TIME AVG. MOMENT       6.14    
                                                (FROM FORCE     FIELD)
 ALL MOMENT    RESIDUALS ARE ZERO
 LARGEST INCREMENT OF ROTATION      7.072E-33   AT NODE          6   DOF  6
   INSTANCE: I_SAMPLE                                                                        
 LARGEST CORRECTION TO ROTATION    -1.155E-33   AT NODE          6   DOF  6
   INSTANCE: I_SAMPLE                                                                        
          THERE IS ZERO MOMENT    EVERYWHERE

 ITERATION SUMMARY FOR THE INCREMENT:   2 TOTAL ITERATIONS, OF WHICH
   0 ARE SEVERE DISCONTINUITY ITERATIONS AND  2 ARE EQUILIBRIUM ITERATIONS.

 TIME INCREMENT COMPLETED  1.000E-02,  FRACTION OF STEP COMPLETED  0.940    
 STEP TIME COMPLETED       0.940    ,  TOTAL TIME COMPLETED        0.940    


  INCREMENT    95 STARTS. ATTEMPT NUMBER  1, TIME INCREMENT  1.000E-02

  NUMBER OF EQUATIONS =     1873     NUMBER OF FLOATING PT. OPERATIONS =  2.46E+06

     CHECK POINT   START OF SOLVER    

     CHECK POINT  END OF SOLVER       

       ELAPSED USER TIME (SEC)      =  1.00000E-02
       ELAPSED SYSTEM TIME (SEC)    =   0.0000    
       ELAPSED TOTAL CPU TIME (SEC) =  1.00000E-02
       ELAPSED WALLCLOCK TIME (SEC) =          0

               CONVERGENCE CHECKS FOR EQUILIBRIUM ITERATION     1


 AVERAGE FORCE                       18.4       TIME AVG. FORCE        31.0    
 LARGEST RESIDUAL FORCE            -0.163       AT NODE         14   DOF  2
   INSTANCE: I_SAMPLE                                                                        
 LARGEST INCREMENT OF DISP.        -1.104E-02   AT NODE          2   DOF  1
   INSTANCE: I_SAMPLE                                                                        
 LARGEST CORRECTION TO DISP.        2.421E-04   AT NODE         14   DOF  1
   INSTANCE: I_SAMPLE                                                                        
          FORCE     EQUILIBRIUM NOT ACHIEVED WITHIN TOLERANCE.

 AVERAGE MOMENT                      0.00       TIME AVG. MOMENT       6.12    
                                                (FROM FORCE     FIELD)
 ALL MOMENT    RESIDUALS ARE ZERO
 LARGEST INCREMENT OF ROTATION      8.630E-33   AT NODE          6   DOF  6
   INSTANCE: I_SAMPLE                                                                        
 LARGEST CORRECTION TO ROTATION     1.558E-33   AT NODE          6   DOF  6
   INSTANCE: I_SAMPLE                                                                        
          THERE IS ZERO MOMENT    EVERYWHERE

  NUMBER OF EQUATIONS =     1873     NUMBER OF FLOATING PT. OPERATIONS =  2.46E+06

     CHECK POINT   START OF SOLVER    

     CHECK POINT  END OF SOLVER       

       ELAPSED USER TIME (SEC)      =  1.00000E-02
       ELAPSED SYSTEM TIME (SEC)    =   0.0000    
       ELAPSED TOTAL CPU TIME (SEC) =  1.00000E-02
       ELAPSED WALLCLOCK TIME (SEC) =          0

               CONVERGENCE CHECKS FOR EQUILIBRIUM ITERATION     2


 AVERAGE FORCE                       18.4       TIME AVG. FORCE        31.0    
 LARGEST RESIDUAL FORCE             8.692E-04   AT NODE         13   DOF  1
   INSTANCE: I_SAMPLE                                                                        
 LARGEST INCREMENT OF DISP.        -1.103E-02   AT NODE          2   DOF  1
   INSTANCE: I_SAMPLE                                                                        
 LARGEST CORRECTION TO DISP.        6.838E-06   AT NODE          2   DOF  1
   INSTANCE: I_SAMPLE                                                                        
          THE FORCE     EQUILIBRIUM EQUATIONS HAVE CONVERGED

 AVERAGE MOMENT                      0.00       TIME AVG. MOMENT       6.12    
                                                (FROM FORCE     FIELD)
 ALL MOMENT    RESIDUALS ARE ZERO
 LARGEST INCREMENT OF ROTATION      7.494E-33   AT NODE          6   DOF  6
   INSTANCE: I_SAMPLE                                                                        
 LARGEST CORRECTION TO ROTATION    -1.136E-33   AT NODE          6   DOF  6
   INSTANCE: I_SAMPLE                                                                        
          THERE IS ZERO MOMENT    EVERYWHERE

 ITERATION SUMMARY FOR THE INCREMENT:   2 TOTAL ITERATIONS, OF WHICH
   0 ARE SEVERE DISCONTINUITY ITERATIONS AND  2 ARE EQUILIBRIUM ITERATIONS.

 TIME INCREMENT COMPLETED  1.000E-02,  FRACTION OF STEP COMPLETED  0.950    
 STEP TIME COMPLETED       0.950    ,  TOTAL TIME COMPLETED        0.950    


  INCREMENT    96 STARTS. ATTEMPT NUMBER  1, TIME INCREMENT  1.000E-02

  NUMBER OF EQUATIONS =     1873     NUMBER OF FLOATING PT. OPERATIONS =  2.46E+06

     CHECK POINT   START OF SOLVER    

     CHECK POINT  END OF SOLVER       

       ELAPSED USER TIME (SEC)      =   0.0000    
       ELAPSED SYSTEM TIME (SEC)    =   0.0000    
       ELAPSED TOTAL CPU TIME (SEC) =   0.0000    
       ELAPSED WALLCLOCK TIME (SEC) =          0

               CONVERGENCE CHECKS FOR EQUILIBRIUM ITERATION     1


 AVERAGE FORCE                       18.1       TIME AVG. FORCE        30.9    
 LARGEST RESIDUAL FORCE            -0.158       AT NODE         14   DOF  2
   INSTANCE: I_SAMPLE                                                                        
 LARGEST INCREMENT OF DISP.        -1.108E-02   AT NODE          2   DOF  1
   INSTANCE: I_SAMPLE                                                                        
 LARGEST CORRECTION TO DISP.        2.347E-04   AT NODE         14   DOF  1
   INSTANCE: I_SAMPLE                                                                        
          FORCE     EQUILIBRIUM NOT ACHIEVED WITHIN TOLERANCE.

 AVERAGE MOMENT                      0.00       TIME AVG. MOMENT       6.09    
                                                (FROM FORCE     FIELD)
 ALL MOMENT    RESIDUALS ARE ZERO
 LARGEST INCREMENT OF ROTATION      9.103E-33   AT NODE          6   DOF  6
   INSTANCE: I_SAMPLE                                                                        
 LARGEST CORRECTION TO ROTATION     1.608E-33   AT NODE          6   DOF  6
   INSTANCE: I_SAMPLE                                                                        
          THERE IS ZERO MOMENT    EVERYWHERE

  NUMBER OF EQUATIONS =     1873     NUMBER OF FLOATING PT. OPERATIONS =  2.46E+06

     CHECK POINT   START OF SOLVER    

     CHECK POINT  END OF SOLVER       

       ELAPSED USER TIME (SEC)      =  2.00000E-02
       ELAPSED SYSTEM TIME (SEC)    =   0.0000    
       ELAPSED TOTAL CPU TIME (SEC) =  2.00000E-02
       ELAPSED WALLCLOCK TIME (SEC) =          0

               CONVERGENCE CHECKS FOR EQUILIBRIUM ITERATION     2


 AVERAGE FORCE                       18.1       TIME AVG. FORCE        30.9    
 LARGEST RESIDUAL FORCE             8.909E-04   AT NODE         13   DOF  1
   INSTANCE: I_SAMPLE                                                                        
 LARGEST INCREMENT OF DISP.        -1.107E-02   AT NODE          2   DOF  1
   INSTANCE: I_SAMPLE                                                                        
 LARGEST CORRECTION TO DISP.        7.036E-06   AT NODE          2   DOF  1
   INSTANCE: I_SAMPLE                                                                        
          THE FORCE     EQUILIBRIUM EQUATIONS HAVE CONVERGED

 AVERAGE MOMENT                      0.00       TIME AVG. MOMENT       6.09    
                                                (FROM FORCE     FIELD)
 ALL MOMENT    RESIDUALS ARE ZERO
 LARGEST INCREMENT OF ROTATION      7.985E-33   AT NODE          6   DOF  6
   INSTANCE: I_SAMPLE                                                                        
 LARGEST CORRECTION TO ROTATION    -1.118E-33   AT NODE          6   DOF  6
   INSTANCE: I_SAMPLE                                                                        
          THERE IS ZERO MOMENT    EVERYWHERE

 ITERATION SUMMARY FOR THE INCREMENT:   2 TOTAL ITERATIONS, OF WHICH
   0 ARE SEVERE DISCONTINUITY ITERATIONS AND  2 ARE EQUILIBRIUM ITERATIONS.

 TIME INCREMENT COMPLETED  1.000E-02,  FRACTION OF STEP COMPLETED  0.960    
 STEP TIME COMPLETED       0.960    ,  TOTAL TIME COMPLETED        0.960    


  INCREMENT    97 STARTS. ATTEMPT NUMBER  1, TIME INCREMENT  1.000E-02

  NUMBER OF EQUATIONS =     1873     NUMBER OF FLOATING PT. OPERATIONS =  2.46E+06

     CHECK POINT   START OF SOLVER    

     CHECK POINT  END OF SOLVER       

       ELAPSED USER TIME (SEC)      =  1.00000E-02
       ELAPSED SYSTEM TIME (SEC)    =   0.0000    
       ELAPSED TOTAL CPU TIME (SEC) =  1.00000E-02
       ELAPSED WALLCLOCK TIME (SEC) =          0

               CONVERGENCE CHECKS FOR EQUILIBRIUM ITERATION     1


 AVERAGE FORCE                       17.9       TIME AVG. FORCE        30.8    
 LARGEST RESIDUAL FORCE            -0.153       AT NODE         14   DOF  2
   INSTANCE: I_SAMPLE                                                                        
 LARGEST INCREMENT OF DISP.        -1.111E-02   AT NODE          2   DOF  1
   INSTANCE: I_SAMPLE                                                                        
 LARGEST CORRECTION TO DISP.        2.268E-04   AT NODE         14   DOF  1
   INSTANCE: I_SAMPLE                                                                        
 ESTIMATE OF DISP.    CORRECTION   -3.258E-07
 FORCE     EQUILIB. ACCEPTED BASED ON SMALL RESIDUAL AND ESTIMATED CORRECTION

 AVERAGE MOMENT                      0.00       TIME AVG. MOMENT       6.06    
                                                (FROM FORCE     FIELD)
 ALL MOMENT    RESIDUALS ARE ZERO
 LARGEST INCREMENT OF ROTATION      9.679E-33   AT NODE          6   DOF  6
   INSTANCE: I_SAMPLE                                                                        
 LARGEST CORRECTION TO ROTATION     1.694E-33   AT NODE          6   DOF  6
   INSTANCE: I_SAMPLE                                                                        
          THERE IS ZERO MOMENT    EVERYWHERE

 ITERATION SUMMARY FOR THE INCREMENT:   1 TOTAL ITERATIONS, OF WHICH
   0 ARE SEVERE DISCONTINUITY ITERATIONS AND  1 ARE EQUILIBRIUM ITERATIONS.

 TIME INCREMENT COMPLETED  1.000E-02,  FRACTION OF STEP COMPLETED  0.970    
 STEP TIME COMPLETED       0.970    ,  TOTAL TIME COMPLETED        0.970    


  INCREMENT    98 STARTS. ATTEMPT NUMBER  1, TIME INCREMENT  1.000E-02

  NUMBER OF EQUATIONS =     1873     NUMBER OF FLOATING PT. OPERATIONS =  2.46E+06

     CHECK POINT   START OF SOLVER    

     CHECK POINT  END OF SOLVER       

       ELAPSED USER TIME (SEC)      =  2.00000E-02
       ELAPSED SYSTEM TIME (SEC)    =   0.0000    
       ELAPSED TOTAL CPU TIME (SEC) =  2.00000E-02
       ELAPSED WALLCLOCK TIME (SEC) =          0

               CONVERGENCE CHECKS FOR EQUILIBRIUM ITERATION     1


 AVERAGE FORCE                       17.7       TIME AVG. FORCE        30.6    
 LARGEST RESIDUAL FORCE            -0.142       AT NODE         14   DOF  2
   INSTANCE: I_SAMPLE                                                                        
 LARGEST INCREMENT OF DISP.        -1.113E-02   AT NODE          2   DOF  1
   INSTANCE: I_SAMPLE                                                                        
 LARGEST CORRECTION TO DISP.        2.154E-04   AT NODE         14   DOF  1
   INSTANCE: I_SAMPLE                                                                        
 ESTIMATE OF DISP.    CORRECTION   -2.897E-07
 FORCE     EQUILIB. ACCEPTED BASED ON SMALL RESIDUAL AND ESTIMATED CORRECTION

 AVERAGE MOMENT                      0.00       TIME AVG. MOMENT       6.04    
                                                (FROM FORCE     FIELD)
 ALL MOMENT    RESIDUALS ARE ZERO
 LARGEST INCREMENT OF ROTATION      1.006E-32   AT NODE          6   DOF  6
   INSTANCE: I_SAMPLE                                                                        
 LARGEST CORRECTION TO ROTATION     3.836E-34   AT NODE          6   DOF  6
   INSTANCE: I_SAMPLE                                                                        
          THERE IS ZERO MOMENT    EVERYWHERE

 ITERATION SUMMARY FOR THE INCREMENT:   1 TOTAL ITERATIONS, OF WHICH
   0 ARE SEVERE DISCONTINUITY ITERATIONS AND  1 ARE EQUILIBRIUM ITERATIONS.

 TIME INCREMENT COMPLETED  1.000E-02,  FRACTION OF STEP COMPLETED  0.980    
 STEP TIME COMPLETED       0.980    ,  TOTAL TIME COMPLETED        0.980    


  INCREMENT    99 STARTS. ATTEMPT NUMBER  1, TIME INCREMENT  1.000E-02

  NUMBER OF EQUATIONS =     1873     NUMBER OF FLOATING PT. OPERATIONS =  2.46E+06

     CHECK POINT   START OF SOLVER    

     CHECK POINT  END OF SOLVER       

       ELAPSED USER TIME (SEC)      =  1.00000E-02
       ELAPSED SYSTEM TIME (SEC)    =   0.0000    
       ELAPSED TOTAL CPU TIME (SEC) =  1.00000E-02
       ELAPSED WALLCLOCK TIME (SEC) =          0

               CONVERGENCE CHECKS FOR EQUILIBRIUM ITERATION     1


 AVERAGE FORCE                       17.5       TIME AVG. FORCE        30.5    
 LARGEST RESIDUAL FORCE            -0.140       AT NODE         14   DOF  2
   INSTANCE: I_SAMPLE                                                                        
 LARGEST INCREMENT OF DISP.        -1.115E-02   AT NODE          2   DOF  1
   INSTANCE: I_SAMPLE                                                                        
 LARGEST CORRECTION TO DISP.        2.063E-04   AT NODE         14   DOF  1
   INSTANCE: I_SAMPLE                                                                        
 ESTIMATE OF DISP.    CORRECTION   -2.756E-07
 FORCE     EQUILIB. ACCEPTED BASED ON SMALL RESIDUAL AND ESTIMATED CORRECTION

 AVERAGE MOMENT                      0.00       TIME AVG. MOMENT       6.01    
                                                (FROM FORCE     FIELD)
 ALL MOMENT    RESIDUALS ARE ZERO
 LARGEST INCREMENT OF ROTATION      1.062E-32   AT NODE          6   DOF  6
   INSTANCE: I_SAMPLE                                                                        
 LARGEST CORRECTION TO ROTATION     5.581E-34   AT NODE          6   DOF  6
   INSTANCE: I_SAMPLE                                                                        
          THERE IS ZERO MOMENT    EVERYWHERE

 ITERATION SUMMARY FOR THE INCREMENT:   1 TOTAL ITERATIONS, OF WHICH
   0 ARE SEVERE DISCONTINUITY ITERATIONS AND  1 ARE EQUILIBRIUM ITERATIONS.

 TIME INCREMENT COMPLETED  1.000E-02,  FRACTION OF STEP COMPLETED  0.990    
 STEP TIME COMPLETED       0.990    ,  TOTAL TIME COMPLETED        0.990    


  INCREMENT   100 STARTS. ATTEMPT NUMBER  1, TIME INCREMENT  1.000E-02

  NUMBER OF EQUATIONS =     1873     NUMBER OF FLOATING PT. OPERATIONS =  2.46E+06

     CHECK POINT   START OF SOLVER    

     CHECK POINT  END OF SOLVER       

       ELAPSED USER TIME (SEC)      =  1.00000E-02
       ELAPSED SYSTEM TIME (SEC)    =   0.0000    
       ELAPSED TOTAL CPU TIME (SEC) =  1.00000E-02
       ELAPSED WALLCLOCK TIME (SEC) =          0

               CONVERGENCE CHECKS FOR EQUILIBRIUM ITERATION     1


 AVERAGE FORCE                       17.2       TIME AVG. FORCE        30.4    
 LARGEST RESIDUAL FORCE            -0.136       AT NODE         14   DOF  2
   INSTANCE: I_SAMPLE                                                                        
 LARGEST INCREMENT OF DISP.        -1.117E-02   AT NODE          2   DOF  1
   INSTANCE: I_SAMPLE                                                                        
 LARGEST CORRECTION TO DISP.        1.970E-04   AT NODE         14   DOF  1
   INSTANCE: I_SAMPLE                                                                        
 ESTIMATE OF DISP.    CORRECTION   -2.595E-07
 FORCE     EQUILIB. ACCEPTED BASED ON SMALL RESIDUAL AND ESTIMATED CORRECTION

 AVERAGE MOMENT                      0.00       TIME AVG. MOMENT       5.98    
                                                (FROM FORCE     FIELD)
 ALL MOMENT    RESIDUALS ARE ZERO
 LARGEST INCREMENT OF ROTATION      1.170E-32   AT NODE          6   DOF  6
   INSTANCE: I_SAMPLE                                                                        
 LARGEST CORRECTION TO ROTATION     1.082E-33   AT NODE          6   DOF  6
   INSTANCE: I_SAMPLE                                                                        
          THERE IS ZERO MOMENT    EVERYWHERE

 ITERATION SUMMARY FOR THE INCREMENT:   1 TOTAL ITERATIONS, OF WHICH
   0 ARE SEVERE DISCONTINUITY ITERATIONS AND  1 ARE EQUILIBRIUM ITERATIONS.

 TIME INCREMENT COMPLETED  1.000E-02,  FRACTION OF STEP COMPLETED   1.00    
 STEP TIME COMPLETED        1.00    ,  TOTAL TIME COMPLETED         1.00    


          THE ANALYSIS HAS BEEN COMPLETED



     ANALYSIS SUMMARY:
     TOTAL OF        100  INCREMENTS
                       0  CUTBACKS IN AUTOMATIC INCREMENTATION
                     194  ITERATIONS INCLUDING CONTACT ITERATIONS IF PRESENT
                     194  PASSES THROUGH THE EQUATION SOLVER OF WHICH 
                     194  INVOLVE MATRIX DECOMPOSITION, INCLUDING
                       0  DECOMPOSITION(S) OF THE MASS MATRIX
                       1  REORDERING OF EQUATIONS TO MINIMIZE WAVEFRONT
                       0  ADDITIONAL RESIDUAL EVALUATIONS FOR LINE SEARCHES
                       0  ADDITIONAL OPERATOR EVALUATIONS FOR LINE SEARCHES
                       1  WARNING MESSAGES DURING USER INPUT PROCESSING
                       2  WARNING MESSAGES DURING ANALYSIS
                       0  ANALYSIS WARNINGS ARE NUMERICAL PROBLEM MESSAGES
                       2  ANALYSIS WARNINGS ARE NEGATIVE EIGENVALUE MESSAGES
                       0  ERROR MESSAGES



     JOB TIME SUMMARY
       USER TIME (SEC)      =   20.510    
       SYSTEM TIME (SEC)    =  0.49000    
       TOTAL CPU TIME (SEC) =   21.000    
       WALLCLOCK TIME (SEC) =         22
