**------------------------------------------------------------------------------
**INDENTATION SIMULATION
**------------------------------------------------------------------------------
*HEADING
Abapy Indentation Simulation
*PREPRINT, ECHO=NO, MODEL=NO, HISTORY=NO, CONTACT=NO
**------------------------------------------------------------------------------
** SAMPLE DEFINITION
**------------------------------------------------------------------------------
*PART, NAME = P_SAMPLE
**------------------------------------------------------------------------------
** NODES
**------------------------------------------------------------------------------
*NODE, NSET=ALLNODES
1, 0.0, 0.0, 0.0
2, 1.5, 0.0, 0.0
3, 1.5, 10.0, 0.0
4, 3.5, 12.0, 0.0
5, 3.5, 16.0, 0.0
6, 0.0, 16.0, 0.0
7, 0.187499999999, 0.0, 0.0
8, 0.374999999998, 0.0, 0.0
9, 0.562499999998, 0.0, 0.0
10, 0.749999999997, 0.0, 0.0
11, 0.937499999998, 0.0, 0.0
12, 1.125, 0.0, 0.0
13, 1.3125, 0.0, 0.0
14, 1.5, 0.2, 0.0
15, 1.5, 0.4, 0.0
16, 1.5, 0.599999999999, 0.0
17, 1.5, 0.799999999999, 0.0
18, 1.5, 0.999999999999, 0.0
19, 1.5, 1.2, 0.0
20, 1.5, 1.4, 0.0
** ... 934 like lines cut
**------------------------------------------------------------------------------
** NODE SETS
**------------------------------------------------------------------------------
*NSET, NSET=TOP
5,6,97,98,99,100,101,102,103,104,105,106,107,108,109,
110,111,112,113,
*NSET, NSET=REF_NODE
6,
*NSET, NSET=SYM_Y
1,2,7,8,9,10,11,12,13,
*NSET, NSET=SYM_X
1,6,114,115,116,117,118,119,120,121,122,123,124,125,126,
127,128,129,130,131,132,133,134,135,136,137,138,139,140,141,142,
143,144,145,146,147,148,149,150,151,152,153,154,155,156,157,158,
159,160,161,162,163,164,165,166,167,168,169,170,171,172,173,174,
175,176,177,178,179,180,181,182,183,184,185,186,187,188,189,190,
191,192,
*NSET, NSET=SURFACE
2,3,4,5,14,15,16,17,18,19,20,21,22,23,24,
25,26,27,28,29,30,31,32,33,34,35,36,37,38,39,40,
41,42,43,44,45,46,47,48,49,50,51,52,53,54,55,56,
57,58,59,60,61,62,63,64,65,66,67,68,69,70,71,72,
73,74,75,76,77,78,79,80,81,82,83,84,85,86,87,88,
89,90,91,92,93,94,95,96
**------------------------------------------------------------------------------
** ELEMENTS
**------------------------------------------------------------------------------
*ELEMENT, TYPE=CAX4, ELSET=CAX4_ELEMENTS
193, 805, 738, 884, 869,
194, 773, 774, 649, 562,
195, 846, 843, 844, 883,
196, 595, 475, 474, 536,
197, 750, 765, 711, 636,
198, 536, 778, 809, 636,
199, 885, 846, 859, 870,
200, 249, 348, 473, 343,
201, 348, 476, 632, 473,
202, 597, 541, 775, 712,
203, 894, 874, 834, 885,
204, 866, 894, 885, 870,
205, 910, 926, 945, 928,
206, 562, 649, 598, 427,
207, 477, 318, 541, 597,
208, 734, 605, 677, 751,
209, 536, 636, 711, 595,
210, 900, 863, 909, 929,
211, 945, 923, 946, 928,
212, 860, 471, 311, 531,
** ... 837 like lines cut
**------------------------------------------------------------------------------
** ELEMENT SETS
**------------------------------------------------------------------------------
*ELSET, ELSET=_SURF_SURFACE_FACE1
254,260,285,326,997,
*ELSET, ELSET=_SURF_SURFACE_FACE3
227,238,264,265,297,311,347,351,395,404,434,441,450,458,464,
469,474,494,504,523,524,548,564,610,632,651,676,730,741,750,759,
767,777,781,790,797,823,826,829,832,915,933,
*ELSET, ELSET=ALL_ELEMENTS
193,194,195,196,197,198,199,200,201,202,203,204,205,206,207,
208,209,210,211,212,213,214,215,216,217,218,219,220,221,222,223,
224,225,226,227,228,229,230,231,232,233,234,235,236,237,238,239,
240,241,242,243,244,245,246,247,248,249,250,251,252,253,254,255,
256,257,258,259,260,261,262,263,264,265,266,267,268,269,270,271,
272,273,274,275,276,277,278,279,280,281,282,283,284,285,286,287,
288,289,290,291,292,293,294,295,296,297,298,299,300,301,302,303,
304,305,306,307,308,309,310,311,312,313,314,315,316,317,318,319,
320,321,322,323,324,325,326,327,328,329,330,331,332,333,334,335,
336,337,338,339,340,341,342,343,344,345,346,347,348,349,350,351,
352,353,354,355,356,357,358,359,360,361,362,363,364,365,366,367,
368,369,370,371,372,373,374,375,376,377,378,379,380,381,382,383,
384,385,386,387,388,389,390,391,392,393,394,395,396,397,398,399,
400,401,402,403,404,405,406,407,408,409,410,411,412,413,414,415,
416,417,418,419,420,421,422,423,424,425,426,427,428,429,430,431,
432,433,434,435,436,437,438,439,440,441,442,443,444,445,446,447,
448,449,450,451,452,453,454,455,456,457,458,459,460,461,462,463,
464,465,466,467,468,469,470,471,472,473,474,475,476,477,478,479,
480,481,482,483,484,485,486,487,488,489,490,491,492,493,494,495,
496,497,498,499,500,501,502,503,504,505,506,507,508,509,510,511,
** ... 34 like lines cut
*ELSET, ELSET=_SURF_SURFACE_FACE4
911,981,
*ELSET, ELSET=_SURF_SURFACE_FACE2
232,254,278,308,312,348,349,357,364,409,478,481,486,550,563,
597,612,633,645,662,666,671,685,691,700,703,710,718,723,739,761,
786,805,809,810,817,834
**------------------------------------------------------------------------------
** SURFACES
**------------------------------------------------------------------------------
*SURFACE, TYPE=ELEMENT, NAME=SURFACE
  _SURF_SURFACE_FACE3, S3
  _SURF_SURFACE_FACE2, S2
  _SURF_SURFACE_FACE1, S1
  _SURF_SURFACE_FACE4, S4
*SOLID SECTION, ELSET = ALL_ELEMENTS, MATERIAL = SAMPLE_MAT
*RIGID BODY, REF NODE = REF_NODE, PIN NSET=TOP
*END PART
**------------------------------------------------------------------------------
** ASSEMBLY
**------------------------------------------------------------------------------
*ASSEMBLY, NAME = ASSEMBLY
*INSTANCE, NAME = I_SAMPLE, PART = P_SAMPLE
*END INSTANCE
*END ASSEMBLY
**------------------------------------------------------------------------------
** MATERIALS
**------------------------------------------------------------------------------
** SAMPLE MATERIAL
** <VonMises instance: 1 samples>
*MATERIAL, NAME=SAMPLE_MAT
*ELASTIC
200.E3,.3
*PLASTIC
200.,0.
220.,.0009
220.,.0029
**------------------------------------------------------------------------------
** STEPS
**------------------------------------------------------------------------------
**------------------------------------------------------------------------------
** STEP: LOADING1
**------------------------------------------------------------------------------
*STEP, NAME = LOADING1, NLGEOM = YES, INC=1000000
*STATIC, DIRECT
0.01, 1.0
*BOUNDARY, OP=NEW
I_SAMPLE.SYM_X, XSYMM
I_SAMPLE.SYM_Y, YSYMM
I_SAMPLE.REF_NODE,2,, 1.0
*RESTART, WRITE, FREQUENCY = 0
*OUTPUT, FIELD, FREQUENCY = 1
*NODE OUTPUT
COORD, U, 
*ELEMENT OUTPUT, ELSET=I_SAMPLE.ALL_ELEMENTS, DIRECTIONS = YES
LE, EE, PE, PEEQ, S, 
*OUTPUT, HISTORY
*ENERGY OUTPUT
ALLFD, ALLWK
*ENERGY OUTPUT, ELSET=I_SAMPLE.ALL_ELEMENTS
ALLPD, ALLSE
*NODE OUTPUT, NSET=I_SAMPLE.REF_NODE
U2, RF2
*NODE OUTPUT, NSET = I_SAMPLE.SURFACE
COOR1, COOR2, COOR3
*END STEP

