**------------------------------------------------------------------------------
**INDENTATION SIMULATION
**------------------------------------------------------------------------------
*HEADING
Abapy Indentation Simulation
*PREPRINT, ECHO=NO, MODEL=NO, HISTORY=NO, CONTACT=NO
**------------------------------------------------------------------------------
** SAMPLE DEFINITION
**------------------------------------------------------------------------------
*PART, NAME = P_SAMPLE
$SAMPLE_MESH
*SOLID SECTION, ELSET = ALL_ELEMENTS, MATERIAL = SAMPLE_MAT
*RIGID BODY, REF NODE = REF_NODE, PIN NSET=TOP
*END PART
**------------------------------------------------------------------------------
** ASSEMBLY
**------------------------------------------------------------------------------
*ASSEMBLY, NAME = ASSEMBLY
*INSTANCE, NAME = I_SAMPLE, PART = P_SAMPLE
*END INSTANCE
*END ASSEMBLY
**------------------------------------------------------------------------------
** SURFACE INTERACTIONS
**------------------------------------------------------------------------------

**------------------------------------------------------------------------------
** MATERIALS
**------------------------------------------------------------------------------
** SAMPLE MATERIAL
** <VonMises instance: 1 samples>
*MATERIAL, NAME=SAMPLE_MAT
*ELASTIC
200.E3,.3
*PLASTIC
200.,0.
220.,.0009
220.,.0029

**------------------------------------------------------------------------------
** STEPS
**------------------------------------------------------------------------------
$STEPS
